<tazs>
    <taz id="1">
        <tazSource id="-298460109#0" weight="100"/>
        <tazSink id="-298460109#0" weight="100"/>
        <tazSource id="-298460192#0" weight="100"/>
        <tazSink id="-298460192#0" weight="100"/>
        <tazSource id="-298460192#1" weight="100"/>
        <tazSink id="-298460192#1" weight="100"/>
        <tazSource id="-298460192#2" weight="100"/>
        <tazSink id="-298460192#2" weight="100"/>
        <tazSource id="-36999940#2" weight="100"/>
        <tazSink id="-36999940#2" weight="100"/>
        <tazSource id="-36999940#3" weight="100"/>
        <tazSink id="-36999940#3" weight="100"/>
        <tazSource id="-36999940#4" weight="100"/>
        <tazSink id="-36999940#4" weight="100"/>
        <tazSource id="-44669544#7" weight="100"/>
        <tazSink id="-44669544#7" weight="100"/>
        <tazSource id="-449254431" weight="100"/>
        <tazSink id="-449254431" weight="100"/>
        <tazSource id="-449254439#0" weight="100"/>
        <tazSink id="-449254439#0" weight="100"/>
        <tazSource id="-449254439#1" weight="100"/>
        <tazSink id="-449254439#1" weight="100"/>
        <tazSource id="-449258897" weight="100"/>
        <tazSink id="-449258897" weight="100"/>
        <tazSource id="-449258898" weight="100"/>
        <tazSink id="-449258898" weight="100"/>
        <tazSource id="-449258900" weight="100"/>
        <tazSink id="-449258900" weight="100"/>
        <tazSource id="-449258928" weight="100"/>
        <tazSink id="-449258928" weight="100"/>
        <tazSource id="-449258930" weight="100"/>
        <tazSink id="-449258930" weight="100"/>
        <tazSource id="-449258941#0" weight="100"/>
        <tazSink id="-449258941#0" weight="100"/>
        <tazSource id="-449258941#1" weight="100"/>
        <tazSink id="-449258941#1" weight="100"/>
        <tazSource id="-449258951#0" weight="100"/>
        <tazSink id="-449258951#0" weight="100"/>
        <tazSource id="-449258970" weight="100"/>
        <tazSink id="-449258970" weight="100"/>
        <tazSource id="-796217838" weight="100"/>
        <tazSink id="-796217838" weight="100"/>
        <tazSource id="298460109#0" weight="100"/>
        <tazSink id="298460109#0" weight="100"/>
        <tazSource id="298460192#0" weight="100"/>
        <tazSink id="298460192#0" weight="100"/>
        <tazSource id="298460192#1" weight="100"/>
        <tazSink id="298460192#1" weight="100"/>
        <tazSource id="298460192#2" weight="100"/>
        <tazSink id="298460192#2" weight="100"/>
        <tazSource id="36999940#2" weight="100"/>
        <tazSink id="36999940#2" weight="100"/>
        <tazSource id="36999940#3" weight="100"/>
        <tazSink id="36999940#3" weight="100"/>
        <tazSource id="36999940#4" weight="100"/>
        <tazSink id="36999940#4" weight="100"/>
        <tazSource id="44669544#7" weight="100"/>
        <tazSink id="44669544#7" weight="100"/>
        <tazSource id="449254431" weight="100"/>
        <tazSink id="449254431" weight="100"/>
        <tazSource id="449254439#0" weight="100"/>
        <tazSink id="449254439#0" weight="100"/>
        <tazSource id="449254439#1" weight="100"/>
        <tazSink id="449254439#1" weight="100"/>
        <tazSource id="449258897" weight="100"/>
        <tazSink id="449258897" weight="100"/>
        <tazSource id="449258898" weight="100"/>
        <tazSink id="449258898" weight="100"/>
        <tazSource id="449258900" weight="100"/>
        <tazSink id="449258900" weight="100"/>
        <tazSource id="449258928" weight="100"/>
        <tazSink id="449258928" weight="100"/>
        <tazSource id="449258930" weight="100"/>
        <tazSink id="449258930" weight="100"/>
        <tazSource id="449258941#0" weight="100"/>
        <tazSink id="449258941#0" weight="100"/>
        <tazSource id="449258941#1" weight="100"/>
        <tazSink id="449258941#1" weight="100"/>
        <tazSource id="449258951#0" weight="100"/>
        <tazSink id="449258951#0" weight="100"/>
        <tazSource id="449258970" weight="100"/>
        <tazSink id="449258970" weight="100"/>
        <tazSource id="621671426" weight="100"/>
        <tazSink id="621671426" weight="100"/>
        <tazSource id="795866927#0" weight="100"/>
        <tazSink id="795866927#0" weight="100"/>
        <tazSource id="795866927#1" weight="100"/>
        <tazSink id="795866927#1" weight="100"/>
        <tazSource id="796217838" weight="100"/>
        <tazSink id="796217838" weight="100"/>
    </taz>
    <taz id="2">
        <tazSource id="-316161559" weight="100"/>
        <tazSink id="-316161559" weight="100"/>
        <tazSource id="-316161632#0" weight="100"/>
        <tazSink id="-316161632#0" weight="100"/>
        <tazSource id="-316161635#1" weight="100"/>
        <tazSink id="-316161635#1" weight="100"/>
        <tazSource id="-316161635#2" weight="100"/>
        <tazSink id="-316161635#2" weight="100"/>
        <tazSource id="-442386647#0" weight="100"/>
        <tazSink id="-442386647#0" weight="100"/>
        <tazSource id="-442386647#1" weight="100"/>
        <tazSink id="-442386647#1" weight="100"/>
        <tazSource id="-449378239#2" weight="100"/>
        <tazSink id="-449378239#2" weight="100"/>
        <tazSource id="-449378246" weight="100"/>
        <tazSink id="-449378246" weight="100"/>
        <tazSource id="-449378293#0" weight="100"/>
        <tazSink id="-449378293#0" weight="100"/>
        <tazSource id="-449378293#1" weight="100"/>
        <tazSink id="-449378293#1" weight="100"/>
        <tazSource id="-449378293#2" weight="100"/>
        <tazSink id="-449378293#2" weight="100"/>
        <tazSource id="-454323221#0" weight="100"/>
        <tazSink id="-454323221#0" weight="100"/>
        <tazSource id="-454323221#1" weight="100"/>
        <tazSink id="-454323221#1" weight="100"/>
        <tazSource id="316161559" weight="100"/>
        <tazSink id="316161559" weight="100"/>
        <tazSource id="316161632#0" weight="100"/>
        <tazSink id="316161632#0" weight="100"/>
        <tazSource id="316161635#1" weight="100"/>
        <tazSink id="316161635#1" weight="100"/>
        <tazSource id="316161635#2" weight="100"/>
        <tazSink id="316161635#2" weight="100"/>
        <tazSource id="442386647#0" weight="100"/>
        <tazSink id="442386647#0" weight="100"/>
        <tazSource id="442386647#1" weight="100"/>
        <tazSink id="442386647#1" weight="100"/>
        <tazSource id="449378239#2" weight="100"/>
        <tazSink id="449378239#2" weight="100"/>
        <tazSource id="449378246" weight="100"/>
        <tazSink id="449378246" weight="100"/>
        <tazSource id="449378293#0" weight="100"/>
        <tazSink id="449378293#0" weight="100"/>
        <tazSource id="449378293#1" weight="100"/>
        <tazSink id="449378293#1" weight="100"/>
        <tazSource id="449378293#2" weight="100"/>
        <tazSink id="449378293#2" weight="100"/>
        <tazSource id="454323221#0" weight="100"/>
        <tazSink id="454323221#0" weight="100"/>
        <tazSource id="454323221#1" weight="100"/>
        <tazSink id="454323221#1" weight="100"/>
    </taz>
    <taz id="3">
        <tazSource id="-298460109#1" weight="100"/>
        <tazSink id="-298460109#1" weight="100"/>
        <tazSource id="-298460109#3" weight="100"/>
        <tazSink id="-298460109#3" weight="100"/>
        <tazSource id="-44669544#5" weight="100"/>
        <tazSink id="-44669544#5" weight="100"/>
        <tazSource id="-449258904#0" weight="100"/>
        <tazSink id="-449258904#0" weight="100"/>
        <tazSource id="-449258905#0" weight="100"/>
        <tazSink id="-449258905#0" weight="100"/>
        <tazSource id="-449258906" weight="100"/>
        <tazSink id="-449258906" weight="100"/>
        <tazSource id="-449258908" weight="100"/>
        <tazSink id="-449258908" weight="100"/>
        <tazSource id="-449258916" weight="100"/>
        <tazSink id="-449258916" weight="100"/>
        <tazSource id="-449258922" weight="100"/>
        <tazSink id="-449258922" weight="100"/>
        <tazSource id="-449258939" weight="100"/>
        <tazSink id="-449258939" weight="100"/>
        <tazSource id="-449258948#1" weight="100"/>
        <tazSink id="-449258948#1" weight="100"/>
        <tazSource id="-449258956" weight="100"/>
        <tazSink id="-449258956" weight="100"/>
        <tazSource id="-449258975#0" weight="100"/>
        <tazSink id="-449258975#0" weight="100"/>
        <tazSource id="-449258975#1" weight="100"/>
        <tazSink id="-449258975#1" weight="100"/>
        <tazSource id="-449258986#0" weight="100"/>
        <tazSink id="-449258986#0" weight="100"/>
        <tazSource id="-449258986#1" weight="100"/>
        <tazSink id="-449258986#1" weight="100"/>
        <tazSource id="-621257534" weight="100"/>
        <tazSink id="-621257534" weight="100"/>
        <tazSource id="-621257535" weight="100"/>
        <tazSink id="-621257535" weight="100"/>
        <tazSource id="-837000190" weight="100"/>
        <tazSink id="-837000190" weight="100"/>
        <tazSource id="-837000191" weight="100"/>
        <tazSink id="-837000191" weight="100"/>
        <tazSource id="298460109#1" weight="100"/>
        <tazSink id="298460109#1" weight="100"/>
        <tazSource id="298460109#3" weight="100"/>
        <tazSink id="298460109#3" weight="100"/>
        <tazSource id="44669544#5" weight="100"/>
        <tazSink id="44669544#5" weight="100"/>
        <tazSource id="449258904#0" weight="100"/>
        <tazSink id="449258904#0" weight="100"/>
        <tazSource id="449258905#0" weight="100"/>
        <tazSink id="449258905#0" weight="100"/>
        <tazSource id="449258906" weight="100"/>
        <tazSink id="449258906" weight="100"/>
        <tazSource id="449258908" weight="100"/>
        <tazSink id="449258908" weight="100"/>
        <tazSource id="449258916" weight="100"/>
        <tazSink id="449258916" weight="100"/>
        <tazSource id="449258922" weight="100"/>
        <tazSink id="449258922" weight="100"/>
        <tazSource id="449258939" weight="100"/>
        <tazSink id="449258939" weight="100"/>
        <tazSource id="449258948#1" weight="100"/>
        <tazSink id="449258948#1" weight="100"/>
        <tazSource id="449258956" weight="100"/>
        <tazSink id="449258956" weight="100"/>
        <tazSource id="449258975#0" weight="100"/>
        <tazSink id="449258975#0" weight="100"/>
        <tazSource id="449258975#1" weight="100"/>
        <tazSink id="449258975#1" weight="100"/>
        <tazSource id="449258986#0" weight="100"/>
        <tazSink id="449258986#0" weight="100"/>
        <tazSource id="449258986#1" weight="100"/>
        <tazSink id="449258986#1" weight="100"/>
        <tazSource id="621257534" weight="100"/>
        <tazSink id="621257534" weight="100"/>
        <tazSource id="621257535" weight="100"/>
        <tazSink id="621257535" weight="100"/>
        <tazSource id="837000190" weight="100"/>
        <tazSink id="837000190" weight="100"/>
        <tazSource id="837000191" weight="100"/>
        <tazSink id="837000191" weight="100"/>
    </taz>
    <taz id="4">
        <tazSource id="-133427884" weight="100"/>
        <tazSink id="-133427884" weight="100"/>
        <tazSource id="-298460193" weight="100"/>
        <tazSink id="-298460193" weight="100"/>
        <tazSource id="-36999940#0" weight="100"/>
        <tazSink id="-36999940#0" weight="100"/>
        <tazSource id="-36999940#1" weight="100"/>
        <tazSink id="-36999940#1" weight="100"/>
        <tazSource id="-44669545#1" weight="100"/>
        <tazSink id="-44669545#1" weight="100"/>
        <tazSource id="-44669545#2" weight="100"/>
        <tazSink id="-44669545#2" weight="100"/>
        <tazSource id="-449254448#0" weight="100"/>
        <tazSink id="-449254448#0" weight="100"/>
        <tazSource id="-525823883#0" weight="100"/>
        <tazSink id="-525823883#0" weight="100"/>
        <tazSource id="-525823883#1" weight="100"/>
        <tazSink id="-525823883#1" weight="100"/>
        <tazSource id="-621257549#1" weight="100"/>
        <tazSink id="-621257549#1" weight="100"/>
        <tazSource id="-831711224#5" weight="100"/>
        <tazSink id="-831711224#5" weight="100"/>
        <tazSource id="133427884" weight="100"/>
        <tazSink id="133427884" weight="100"/>
        <tazSource id="298460193" weight="100"/>
        <tazSink id="298460193" weight="100"/>
        <tazSource id="36999940#0" weight="100"/>
        <tazSink id="36999940#0" weight="100"/>
        <tazSource id="36999940#1" weight="100"/>
        <tazSink id="36999940#1" weight="100"/>
        <tazSource id="44669545#1" weight="100"/>
        <tazSink id="44669545#1" weight="100"/>
        <tazSource id="44669545#2" weight="100"/>
        <tazSink id="44669545#2" weight="100"/>
        <tazSource id="449254448#0" weight="100"/>
        <tazSink id="449254448#0" weight="100"/>
        <tazSource id="525823883#0" weight="100"/>
        <tazSink id="525823883#0" weight="100"/>
        <tazSource id="525823883#1" weight="100"/>
        <tazSink id="525823883#1" weight="100"/>
        <tazSource id="621257549#1" weight="100"/>
        <tazSink id="621257549#1" weight="100"/>
        <tazSource id="621671425" weight="100"/>
        <tazSink id="621671425" weight="100"/>
        <tazSource id="796217837" weight="100"/>
        <tazSink id="796217837" weight="100"/>
        <tazSource id="831711224#5" weight="100"/>
        <tazSink id="831711224#5" weight="100"/>
    </taz>
    <taz id="5">
        <tazSource id="-298460192#5" weight="100"/>
        <tazSink id="-298460192#5" weight="100"/>
        <tazSource id="-525823881#2" weight="100"/>
        <tazSink id="-525823881#2" weight="100"/>
        <tazSource id="-525823881#3" weight="100"/>
        <tazSink id="-525823881#3" weight="100"/>
        <tazSource id="-525823882" weight="100"/>
        <tazSink id="-525823882" weight="100"/>
        <tazSource id="-525823898#0" weight="100"/>
        <tazSink id="-525823898#0" weight="100"/>
        <tazSource id="-525823898#1" weight="100"/>
        <tazSink id="-525823898#1" weight="100"/>
        <tazSource id="-621257549#0" weight="100"/>
        <tazSink id="-621257549#0" weight="100"/>
        <tazSource id="-621257550#0" weight="100"/>
        <tazSink id="-621257550#0" weight="100"/>
        <tazSource id="-621257550#1" weight="100"/>
        <tazSink id="-621257550#1" weight="100"/>
        <tazSource id="298460192#5" weight="100"/>
        <tazSink id="298460192#5" weight="100"/>
        <tazSource id="525823881#2" weight="100"/>
        <tazSink id="525823881#2" weight="100"/>
        <tazSource id="525823881#3" weight="100"/>
        <tazSink id="525823881#3" weight="100"/>
        <tazSource id="525823882" weight="100"/>
        <tazSink id="525823882" weight="100"/>
        <tazSource id="525823898#0" weight="100"/>
        <tazSink id="525823898#0" weight="100"/>
        <tazSource id="525823898#1" weight="100"/>
        <tazSink id="525823898#1" weight="100"/>
        <tazSource id="621257549#0" weight="100"/>
        <tazSink id="621257549#0" weight="100"/>
        <tazSource id="621257550#0" weight="100"/>
        <tazSink id="621257550#0" weight="100"/>
        <tazSource id="621257550#1" weight="100"/>
        <tazSink id="621257550#1" weight="100"/>
    </taz>
    <taz id="6">
        <tazSource id="-44669544#0" weight="100"/>
        <tazSink id="-44669544#0" weight="100"/>
        <tazSource id="419909916#0" weight="100"/>
        <tazSink id="419909916#0" weight="100"/>
        <tazSource id="419909927#4" weight="100"/>
        <tazSink id="419909927#4" weight="100"/>
        <tazSource id="44669544#0" weight="100"/>
        <tazSink id="44669544#0" weight="100"/>
    </taz>
    <taz id="7">
        <tazSource id="-44678824#0" weight="100"/>
        <tazSink id="-44678824#0" weight="100"/>
        <tazSource id="-44678824#0.263" weight="100"/>
        <tazSink id="-44678824#0.263" weight="100"/>
        <tazSource id="-44678824#1" weight="100"/>
        <tazSink id="-44678824#1" weight="100"/>
        <tazSource id="-449254425" weight="100"/>
        <tazSink id="-449254425" weight="100"/>
        <tazSource id="-449254426" weight="100"/>
        <tazSink id="-449254426" weight="100"/>
        <tazSource id="-449254427" weight="100"/>
        <tazSink id="-449254427" weight="100"/>
        <tazSource id="-449254428" weight="100"/>
        <tazSink id="-449254428" weight="100"/>
        <tazSource id="-449254430" weight="100"/>
        <tazSink id="-449254430" weight="100"/>
        <tazSource id="-449254434" weight="100"/>
        <tazSink id="-449254434" weight="100"/>
        <tazSource id="-449254438" weight="100"/>
        <tazSink id="-449254438" weight="100"/>
        <tazSource id="-449254440#0" weight="100"/>
        <tazSink id="-449254440#0" weight="100"/>
        <tazSource id="-449254440#1" weight="100"/>
        <tazSink id="-449254440#1" weight="100"/>
        <tazSource id="-449254440#2" weight="100"/>
        <tazSink id="-449254440#2" weight="100"/>
        <tazSource id="-449254442#0" weight="100"/>
        <tazSink id="-449254442#0" weight="100"/>
        <tazSource id="-449254442#1" weight="100"/>
        <tazSink id="-449254442#1" weight="100"/>
        <tazSource id="-449254442#3" weight="100"/>
        <tazSink id="-449254442#3" weight="100"/>
        <tazSource id="-449254444#0" weight="100"/>
        <tazSink id="-449254444#0" weight="100"/>
        <tazSource id="-449254444#1" weight="100"/>
        <tazSink id="-449254444#1" weight="100"/>
        <tazSource id="-449254445" weight="100"/>
        <tazSink id="-449254445" weight="100"/>
        <tazSource id="-449254446" weight="100"/>
        <tazSink id="-449254446" weight="100"/>
        <tazSource id="-449254450#0" weight="100"/>
        <tazSink id="-449254450#0" weight="100"/>
        <tazSource id="-449254450#1" weight="100"/>
        <tazSink id="-449254450#1" weight="100"/>
        <tazSource id="-449254450#2" weight="100"/>
        <tazSink id="-449254450#2" weight="100"/>
        <tazSource id="-449254450#3" weight="100"/>
        <tazSink id="-449254450#3" weight="100"/>
        <tazSource id="-499100218" weight="100"/>
        <tazSink id="-499100218" weight="100"/>
        <tazSource id="-525823878#0" weight="100"/>
        <tazSink id="-525823878#0" weight="100"/>
        <tazSource id="-525823878#1" weight="100"/>
        <tazSink id="-525823878#1" weight="100"/>
        <tazSource id="-525823878#2" weight="100"/>
        <tazSink id="-525823878#2" weight="100"/>
        <tazSource id="-525823880" weight="100"/>
        <tazSink id="-525823880" weight="100"/>
        <tazSource id="-525823881#1" weight="100"/>
        <tazSink id="-525823881#1" weight="100"/>
        <tazSource id="-834187231" weight="100"/>
        <tazSink id="-834187231" weight="100"/>
        <tazSource id="-gneE9" weight="100"/>
        <tazSink id="-gneE9" weight="100"/>
        <tazSource id="44678824#0" weight="100"/>
        <tazSink id="44678824#0" weight="100"/>
        <tazSource id="44678824#0.376" weight="100"/>
        <tazSink id="44678824#0.376" weight="100"/>
        <tazSource id="44678824#1" weight="100"/>
        <tazSink id="44678824#1" weight="100"/>
        <tazSource id="449254425" weight="100"/>
        <tazSink id="449254425" weight="100"/>
        <tazSource id="449254426" weight="100"/>
        <tazSink id="449254426" weight="100"/>
        <tazSource id="449254427" weight="100"/>
        <tazSink id="449254427" weight="100"/>
        <tazSource id="449254428" weight="100"/>
        <tazSink id="449254428" weight="100"/>
        <tazSource id="449254430" weight="100"/>
        <tazSink id="449254430" weight="100"/>
        <tazSource id="449254434" weight="100"/>
        <tazSink id="449254434" weight="100"/>
        <tazSource id="449254438" weight="100"/>
        <tazSink id="449254438" weight="100"/>
        <tazSource id="449254440#0" weight="100"/>
        <tazSink id="449254440#0" weight="100"/>
        <tazSource id="449254440#1" weight="100"/>
        <tazSink id="449254440#1" weight="100"/>
        <tazSource id="449254440#2" weight="100"/>
        <tazSink id="449254440#2" weight="100"/>
        <tazSource id="449254442#0" weight="100"/>
        <tazSink id="449254442#0" weight="100"/>
        <tazSource id="449254442#1" weight="100"/>
        <tazSink id="449254442#1" weight="100"/>
        <tazSource id="449254442#3" weight="100"/>
        <tazSink id="449254442#3" weight="100"/>
        <tazSource id="449254444#0" weight="100"/>
        <tazSink id="449254444#0" weight="100"/>
        <tazSource id="449254444#1" weight="100"/>
        <tazSink id="449254444#1" weight="100"/>
        <tazSource id="449254445" weight="100"/>
        <tazSink id="449254445" weight="100"/>
        <tazSource id="449254446" weight="100"/>
        <tazSink id="449254446" weight="100"/>
        <tazSource id="449254450#0" weight="100"/>
        <tazSink id="449254450#0" weight="100"/>
        <tazSource id="449254450#1" weight="100"/>
        <tazSink id="449254450#1" weight="100"/>
        <tazSource id="449254450#2" weight="100"/>
        <tazSink id="449254450#2" weight="100"/>
        <tazSource id="449254450#3" weight="100"/>
        <tazSink id="449254450#3" weight="100"/>
        <tazSource id="499100218" weight="100"/>
        <tazSink id="499100218" weight="100"/>
        <tazSource id="525823878#0" weight="100"/>
        <tazSink id="525823878#0" weight="100"/>
        <tazSource id="525823878#1" weight="100"/>
        <tazSink id="525823878#1" weight="100"/>
        <tazSource id="525823878#2" weight="100"/>
        <tazSink id="525823878#2" weight="100"/>
        <tazSource id="525823880" weight="100"/>
        <tazSink id="525823880" weight="100"/>
        <tazSource id="525823881#1" weight="100"/>
        <tazSink id="525823881#1" weight="100"/>
        <tazSource id="834187231" weight="100"/>
        <tazSink id="834187231" weight="100"/>
        <tazSource id="gneE9" weight="100"/>
        <tazSink id="gneE9" weight="100"/>
    </taz>
    <taz id="8">
        <tazSource id="-316161635#3" weight="100"/>
        <tazSink id="-316161635#3" weight="100"/>
        <tazSource id="-316161635#4" weight="100"/>
        <tazSink id="-316161635#4" weight="100"/>
        <tazSource id="-442386647#2" weight="100"/>
        <tazSink id="-442386647#2" weight="100"/>
        <tazSource id="-442386647#3" weight="100"/>
        <tazSink id="-442386647#3" weight="100"/>
        <tazSource id="-442386647#4" weight="100"/>
        <tazSink id="-442386647#4" weight="100"/>
        <tazSource id="-442386647#5" weight="100"/>
        <tazSink id="-442386647#5" weight="100"/>
        <tazSource id="-449258969#0" weight="100"/>
        <tazSink id="-449258969#0" weight="100"/>
        <tazSource id="-449258969#1" weight="100"/>
        <tazSink id="-449258969#1" weight="100"/>
        <tazSource id="-449259567#4" weight="100"/>
        <tazSink id="-449259567#4" weight="100"/>
        <tazSource id="-449259687#0" weight="100"/>
        <tazSink id="-449259687#0" weight="100"/>
        <tazSource id="-449378239#0" weight="100"/>
        <tazSink id="-449378239#0" weight="100"/>
        <tazSource id="-449378239#1" weight="100"/>
        <tazSink id="-449378239#1" weight="100"/>
        <tazSource id="-449378243" weight="100"/>
        <tazSink id="-449378243" weight="100"/>
        <tazSource id="-449378279" weight="100"/>
        <tazSink id="-449378279" weight="100"/>
        <tazSource id="-449378294#0" weight="100"/>
        <tazSink id="-449378294#0" weight="100"/>
        <tazSource id="-449378294#1" weight="100"/>
        <tazSink id="-449378294#1" weight="100"/>
        <tazSource id="-449378295#3" weight="100"/>
        <tazSink id="-449378295#3" weight="100"/>
        <tazSource id="-449378295#4" weight="100"/>
        <tazSink id="-449378295#4" weight="100"/>
        <tazSource id="316161635#3" weight="100"/>
        <tazSink id="316161635#3" weight="100"/>
        <tazSource id="316161635#4" weight="100"/>
        <tazSink id="316161635#4" weight="100"/>
        <tazSource id="442386647#2" weight="100"/>
        <tazSink id="442386647#2" weight="100"/>
        <tazSource id="442386647#3" weight="100"/>
        <tazSink id="442386647#3" weight="100"/>
        <tazSource id="442386647#4" weight="100"/>
        <tazSink id="442386647#4" weight="100"/>
        <tazSource id="442386647#5" weight="100"/>
        <tazSink id="442386647#5" weight="100"/>
        <tazSource id="449258969#0" weight="100"/>
        <tazSink id="449258969#0" weight="100"/>
        <tazSource id="449258969#1" weight="100"/>
        <tazSink id="449258969#1" weight="100"/>
        <tazSource id="449259567#4" weight="100"/>
        <tazSink id="449259567#4" weight="100"/>
        <tazSource id="449259687#0" weight="100"/>
        <tazSink id="449259687#0" weight="100"/>
        <tazSource id="449378239#0" weight="100"/>
        <tazSink id="449378239#0" weight="100"/>
        <tazSource id="449378239#1" weight="100"/>
        <tazSink id="449378239#1" weight="100"/>
        <tazSource id="449378243" weight="100"/>
        <tazSink id="449378243" weight="100"/>
        <tazSource id="449378279" weight="100"/>
        <tazSink id="449378279" weight="100"/>
        <tazSource id="449378294#0" weight="100"/>
        <tazSink id="449378294#0" weight="100"/>
        <tazSource id="449378294#1" weight="100"/>
        <tazSink id="449378294#1" weight="100"/>
        <tazSource id="449378295#3" weight="100"/>
        <tazSink id="449378295#3" weight="100"/>
        <tazSource id="449378295#4" weight="100"/>
        <tazSink id="449378295#4" weight="100"/>
    </taz>
    <taz id="9">
        <tazSource id="-133427886#1" weight="100"/>
        <tazSink id="-133427886#1" weight="100"/>
        <tazSource id="-448092251" weight="100"/>
        <tazSink id="-448092251" weight="100"/>
        <tazSource id="-448092259" weight="100"/>
        <tazSink id="-448092259" weight="100"/>
        <tazSource id="-448092287" weight="100"/>
        <tazSink id="-448092287" weight="100"/>
        <tazSource id="-448092290#0" weight="100"/>
        <tazSink id="-448092290#0" weight="100"/>
        <tazSource id="-448092290#1" weight="100"/>
        <tazSink id="-448092290#1" weight="100"/>
        <tazSource id="-448092295#1" weight="100"/>
        <tazSink id="-448092295#1" weight="100"/>
        <tazSource id="-448092295#2" weight="100"/>
        <tazSink id="-448092295#2" weight="100"/>
        <tazSource id="-805819268" weight="100"/>
        <tazSink id="-805819268" weight="100"/>
        <tazSource id="133427886#1" weight="100"/>
        <tazSink id="133427886#1" weight="100"/>
        <tazSource id="442518549#2" weight="100"/>
        <tazSink id="442518549#2" weight="100"/>
        <tazSource id="442518549#3" weight="100"/>
        <tazSink id="442518549#3" weight="100"/>
        <tazSource id="448092251" weight="100"/>
        <tazSink id="448092251" weight="100"/>
        <tazSource id="448092259" weight="100"/>
        <tazSink id="448092259" weight="100"/>
        <tazSource id="448092287" weight="100"/>
        <tazSink id="448092287" weight="100"/>
        <tazSource id="448092290#0" weight="100"/>
        <tazSink id="448092290#0" weight="100"/>
        <tazSource id="448092290#1" weight="100"/>
        <tazSink id="448092290#1" weight="100"/>
        <tazSource id="448092295#1" weight="100"/>
        <tazSink id="448092295#1" weight="100"/>
        <tazSource id="448092295#2" weight="100"/>
        <tazSink id="448092295#2" weight="100"/>
        <tazSource id="795509472#3" weight="100"/>
        <tazSink id="795509472#3" weight="100"/>
        <tazSource id="805819268" weight="100"/>
        <tazSink id="805819268" weight="100"/>
    </taz>
    <taz id="11">
        <tazSource id="-298460114#1" weight="100"/>
        <tazSink id="-298460114#1" weight="100"/>
        <tazSource id="-298460114#2" weight="100"/>
        <tazSink id="-298460114#2" weight="100"/>
        <tazSource id="-298460114#3" weight="100"/>
        <tazSink id="-298460114#3" weight="100"/>
        <tazSource id="-449258899" weight="100"/>
        <tazSink id="-449258899" weight="100"/>
        <tazSource id="-449258901" weight="100"/>
        <tazSink id="-449258901" weight="100"/>
        <tazSource id="-449258920" weight="100"/>
        <tazSink id="-449258920" weight="100"/>
        <tazSource id="-449258923" weight="100"/>
        <tazSink id="-449258923" weight="100"/>
        <tazSource id="-449258955#0" weight="100"/>
        <tazSink id="-449258955#0" weight="100"/>
        <tazSource id="-449258955#1" weight="100"/>
        <tazSink id="-449258955#1" weight="100"/>
        <tazSource id="-449258968#0" weight="100"/>
        <tazSink id="-449258968#0" weight="100"/>
        <tazSource id="-449258968#1" weight="100"/>
        <tazSink id="-449258968#1" weight="100"/>
        <tazSource id="-454323274#0" weight="100"/>
        <tazSink id="-454323274#0" weight="100"/>
        <tazSource id="-454323274#1" weight="100"/>
        <tazSink id="-454323274#1" weight="100"/>
        <tazSource id="-454323298" weight="100"/>
        <tazSink id="-454323298" weight="100"/>