<?xml version="1.0" encoding="UTF-8"?>
<!-- generated on 2023-03-22 12:32:02.336936 by randomTrips.py v1_12_0+0000-800cb422fa4
  options: -n ../tw_rdc_case/output_background/osm.net.xml -o ../tw_rdc_case/cache/background_pedestrian.trips.xml <doubleminus>fringe-factor 4 <doubleminus>seed 42 -e 3600 -p 5 <doubleminus>vehicle-class pedestrian <doubleminus>persontrips <doubleminus>additional-files ../tw_rdc_case/output_background/busStops.xml,../tw_rdc_case/output_background/newsubwayStops.xml,../tw_rdc_case/output_background/bus.rou.xml,../tw_rdc_case/output_background/subway.rou.xml <doubleminus>trip-attributes modes='public'
-->
<routes xmlns:xsi="http://www.w3.org/2001/XMLSchema-instance" xsi:noNamespaceSchemaLocation="http://sumo.dlr.de/xsd/routes_file.xsd">
    <vType id="pedestrian" vClass="pedestrian"/>
    <person id="0" depart="0.00" type="pedestrian">
        <personTrip from="454323080#3" to="-131445524#1" modes='public'/>
    </person>
    <person id="1" depart="5.00" type="pedestrian">
        <personTrip from="-621257554#1" to="-503535578#2" modes='public'/>
    </person>
    <person id="2" depart="10.00" type="pedestrian">
        <personTrip from="620937801#1" to="485337612" modes='public'/>
    </person>
    <person id="3" depart="15.00" type="pedestrian">
        <personTrip from="801547008#3" to="-440363055#0" modes='public'/>
    </person>
    <person id="4" depart="20.00" type="pedestrian">
        <personTrip from="24535157#1" to="-181596127#0.106" modes='public'/>
    </person>
    <person id="5" depart="25.00" type="pedestrian">
        <personTrip from="-462717461#1" to="441761561#0" modes='public'/>
    </person>
    <person id="6" depart="30.00" type="pedestrian">
        <personTrip from="-131445524#3" to="-454323212#3" modes='public'/>
    </person>
    <person id="7" depart="35.00" type="pedestrian">
        <personTrip from="454323212#3" to="44669522#1" modes='public'/>
    </person>
    <person id="8" depart="40.00" type="pedestrian">
        <personTrip from="-503535567#0" to="44678824#1" modes='public'/>
    </person>
    <person id="9" depart="45.00" type="pedestrian">
        <personTrip from="790946264#3" to="-112973835#0" modes='public'/>
    </person>
    <person id="10" depart="50.00" type="pedestrian">
        <personTrip from="790946261" to="525823881#3" modes='public'/>
    </person>
    <person id="11" depart="55.00" type="pedestrian">
        <personTrip from="-834172519" to="-448092249" modes='public'/>
    </person>
    <person id="12" depart="60.00" type="pedestrian">
        <personTrip from="840022508#1" to="-834142382#1" modes='public'/>
    </person>
    <person id="13" depart="65.00" type="pedestrian">
        <personTrip from="-442386636#0" to="-442386647#1" modes='public'/>
    </person>
    <person id="14" depart="70.00" type="pedestrian">
        <personTrip from="793877971#0" to="448092288#0" modes='public'/>
    </person>
    <person id="15" depart="75.00" type="pedestrian">
        <personTrip from="790946263" to="559744149.148" modes='public'/>
    </person>
    <person id="16" depart="80.00" type="pedestrian">
        <personTrip from="44660563" to="gneE30" modes='public'/>
    </person>
    <person id="17" depart="85.00" type="pedestrian">
        <personTrip from="117947970#1" to="44669532#1" modes='public'/>
    </person>
    <person id="18" depart="90.00" type="pedestrian">
        <personTrip from="793466805#2" to="449378259" modes='public'/>
    </person>
    <person id="19" depart="95.00" type="pedestrian">
        <personTrip from="795311121.64" to="44669552#0" modes='public'/>
    </person>
    <person id="20" depart="100.00" type="pedestrian">
        <personTrip from="525823904#3" to="-294908211#2" modes='public'/>
    </person>
    <person id="21" depart="105.00" type="pedestrian">
        <personTrip from="-525823860#0" to="-790946264#2" modes='public'/>
    </person>
    <person id="22" depart="110.00" type="pedestrian">
        <personTrip from="-372693171#2" to="-525823881#1" modes='public'/>
    </person>
    <person id="23" depart="115.00" type="pedestrian">
        <personTrip from="-442386648#2" to="-621257566#0" modes='public'/>
    </person>
    <person id="24" depart="120.00" type="pedestrian">
        <personTrip from="454323072" to="-gneE118" modes='public'/>
    </person>
    <person id="25" depart="125.00" type="pedestrian">
        <personTrip from="112973829#2" to="-454323282#0" modes='public'/>
    </person>
    <person id="26" depart="130.00" type="pedestrian">
        <personTrip from="-621105893" to="836267094" modes='public'/>
    </person>
    <person id="27" depart="135.00" type="pedestrian">
        <personTrip from="454323212#0" to="449258972#0" modes='public'/>
    </person>
    <person id="28" depart="140.00" type="pedestrian">
        <personTrip from="-449378251" to="559744149.148" modes='public'/>
    </person>
    <person id="29" depart="145.00" type="pedestrian">
        <personTrip from="-449265240" to="117947970#3" modes='public'/>
    </person>
    <person id="30" depart="150.00" type="pedestrian">
        <personTrip from="gneE76" to="454323080#4" modes='public'/>
    </person>
    <person id="31" depart="155.00" type="pedestrian">
        <personTrip from="44669535#7" to="503535578#4" modes='public'/>
    </person>
    <person id="32" depart="160.00" type="pedestrian">
        <personTrip from="793877966#2" to="621655562#2" modes='public'/>
    </person>
    <person id="33" depart="165.00" type="pedestrian">
        <personTrip from="-525823862#0" to="-181596127#0.151" modes='public'/>
    </person>
    <person id="34" depart="170.00" type="pedestrian">
        <personTrip from="-795866926#0" to="-621105910" modes='public'/>
    </person>
    <person id="35" depart="175.00" type="pedestrian">
        <personTrip from="-454323283#4" to="837050333#4" modes='public'/>
    </person>
    <person id="36" depart="180.00" type="pedestrian">
        <personTrip from="801546982" to="-793885080#3" modes='public'/>
    </person>
    <person id="37" depart="185.00" type="pedestrian">
        <personTrip from="454323254" to="131443655#8" modes='public'/>
    </person>
    <person id="38" depart="190.00" type="pedestrian">
        <personTrip from="832153225" to="343405425#0" modes='public'/>
    </person>
    <person id="39" depart="195.00" type="pedestrian">
        <personTrip from="-620937810#2" to="-538444308#1" modes='public'/>
    </person>
    <person id="40" depart="200.00" type="pedestrian">
        <personTrip from="44669539#3" to="-620937800#1" modes='public'/>
    </person>
    <person id="41" depart="205.00" type="pedestrian">
        <personTrip from="44678822#0" to="802095854#1.219" modes='public'/>
    </person>
    <person id="42" depart="210.00" type="pedestrian">
        <personTrip from="131443671#0" to="-485058038" modes='public'/>
    </person>
    <person id="43" depart="215.00" type="pedestrian">
        <personTrip from="gneE94.213" to="442386643#1" modes='public'/>
    </person>
    <person id="44" depart="220.00" type="pedestrian">
        <personTrip from="-44044883#6" to="-296360709#0" modes='public'/>
    </person>
    <person id="45" depart="225.00" type="pedestrian">
        <personTrip from="-44669518#0" to="449378295#4" modes='public'/>
    </person>
    <person id="46" depart="230.00" type="pedestrian">
        <personTrip from="685088109" to="24535157#1" modes='public'/>
    </person>
    <person id="47" depart="235.00" type="pedestrian">
        <personTrip from="-315108612#0" to="117947974#1" modes='public'/>
    </person>
    <person id="48" depart="240.00" type="pedestrian">
        <personTrip from="gneE94" to="44660544" modes='public'/>
    </person>
    <person id="49" depart="245.00" type="pedestrian">
        <personTrip from="gneE24" to="795311121" modes='public'/>
    </person>
    <person id="50" depart="250.00" type="pedestrian">
        <personTrip from="-131443655#4" to="538650550" modes='public'/>
    </person>
    <person id="51" depart="255.00" type="pedestrian">
        <personTrip from="503535567#2" to="44669518#0" modes='public'/>
    </person>
    <person id="52" depart="260.00" type="pedestrian">
        <personTrip from="-620937814#0" to="454323080#6" modes='public'/>
    </person>
    <person id="53" depart="265.00" type="pedestrian">
        <personTrip from="-44669520#4.14" to="296360972#1" modes='public'/>
    </person>
    <person id="54" depart="270.00" type="pedestrian">
        <personTrip from="315108612#2" to="838999190#2" modes='public'/>
    </person>
    <person id="55" depart="275.00" type="pedestrian">
        <personTrip from="798639457#1" to="-620937810#0" modes='public'/>
    </person>
    <person id="56" depart="280.00" type="pedestrian">
        <personTrip from="419912509#4" to="-449378295#0" modes='public'/>
    </person>
    <person id="57" depart="285.00" type="pedestrian">
        <personTrip from="831711224#1" to="795866928#3" modes='public'/>
    </person>
    <person id="58" depart="290.00" type="pedestrian">
        <personTrip from="-793877954#0" to="454323080#3" modes='public'/>
    </person>
    <person id="59" depart="295.00" type="pedestrian">
        <personTrip from="449258972#0" to="-448092196#3" modes='public'/>
    </person>
    <person id="60" depart="300.00" type="pedestrian">
        <personTrip from="621164893#3.123" to="44669519#2" modes='public'/>
    </person>
    <person id="61" depart="305.00" type="pedestrian">
        <personTrip from="621655565" to="44660548" modes='public'/>
    </person>
    <person id="62" depart="310.00" type="pedestrian">
        <personTrip from="--296360974#1.21" to="-796217838" modes='public'/>
    </person>
    <person id="63" depart="315.00" type="pedestrian">
        <personTrip from="-131443671#5" to="834876447#4" modes='public'/>
    </person>
    <person id="64" depart="320.00" type="pedestrian">
        <personTrip from="801546989#1" to="793877954#1" modes='public'/>
    </person>
    <person id="65" depart="325.00" type="pedestrian">
        <personTrip from="-793877980" to="-298460357#1" modes='public'/>
    </person>
    <person id="66" depart="330.00" type="pedestrian">
        <personTrip from="801546987" to="838433334" modes='public'/>
    </person>
    <person id="67" depart="335.00" type="pedestrian">
        <personTrip from="-407520129" to="419909916#0" modes='public'/>
    </person>
    <person id="68" depart="340.00" type="pedestrian">
        <personTrip from="-36784500#0" to="621164893#0" modes='public'/>
    </person>
    <person id="69" depart="345.00" type="pedestrian">
        <personTrip from="621257554#0" to="-44669546#0" modes='public'/>
    </person>
    <person id="70" depart="350.00" type="pedestrian">
        <personTrip from="372693171#0" to="44669526#4" modes='public'/>
    </person>
    <person id="71" depart="355.00" type="pedestrian">
        <personTrip from="-620937810#2" to="795866928#6" modes='public'/>
    </person>
    <person id="72" depart="360.00" type="pedestrian">
        <personTrip from="24535157#2" to="-454323285#0" modes='public'/>
    </person>
    <person id="73" depart="365.00" type="pedestrian">
        <personTrip from="44669519#2" to="559744152" modes='public'/>
    </person>
    <person id="74" depart="370.00" type="pedestrian">
        <personTrip from="-454323235#0" to="-793885078#3" modes='public'/>
    </person>
    <person id="75" depart="375.00" type="pedestrian">
        <personTrip from="gneE9" to="454323212#3" modes='public'/>
    </person>
    <person id="76" depart="380.00" type="pedestrian">
        <personTrip from="298460270#0" to="442386648#6" modes='public'/>
    </person>
    <person id="77" depart="385.00" type="pedestrian">
        <personTrip from="-44669539#4" to="-503535578#4" modes='public'/>
    </person>
    <person id="78" depart="390.00" type="pedestrian">
        <personTrip from="-834142382#3" to="44678824#0.376" modes='public'/>
    </person>
    <person id="79" depart="395.00" type="pedestrian">
        <personTrip from="-525823867#0" to="-502015218#0" modes='public'/>
    </person>
    <person id="80" depart="400.00" type="pedestrian">
        <personTrip from="-36784500#4" to="449378300#2" modes='public'/>
    </person>
    <person id="81" depart="405.00" type="pedestrian">
        <personTrip from="-525823862#0" to="805819264#1" modes='public'/>
    </person>
    <person id="82" depart="410.00" type="pedestrian">
        <personTrip from="793888294" to="-36784500#4" modes='public'/>
    </person>
    <person id="83" depart="415.00" type="pedestrian">
        <personTrip from="-525823904#0" to="461555221" modes='public'/>
    </person>
    <person id="84" depart="420.00" type="pedestrian">
        <personTrip from="-462717451#0" to="-44669547#5" modes='public'/>
    </person>
    <person id="85" depart="425.00" type="pedestrian">
        <personTrip from="836267093" to="44669546#1" modes='public'/>
    </person>
    <person id="86" depart="430.00" type="pedestrian">
        <personTrip from="372693170#0" to="621671428#0" modes='public'/>
    </person>
    <person id="87" depart="435.00" type="pedestrian">
        <personTrip from="790946264#0" to="-454323064" modes='public'/>
    </person>
    <person id="88" depart="440.00" type="pedestrian">
        <personTrip from="-442386647#1" to="294908215" modes='public'/>
    </person>
    <person id="89" depart="445.00" type="pedestrian">
        <personTrip from="24535157#3" to="36999942#0" modes='public'/>
    </person>
    <person id="90" depart="450.00" type="pedestrian">
        <personTrip from="559744149" to="477237804#0" modes='public'/>
    </person>
    <person id="91" depart="455.00" type="pedestrian">
        <personTrip from="gneE73.462" to="-442386647#6" modes='public'/>
    </person>
    <person id="92" depart="460.00" type="pedestrian">
        <personTrip from="131443671#5" to="-834142382#5" modes='public'/>
    </person>
    <person id="93" depart="465.00" type="pedestrian">
        <personTrip from="795311121.64" to="-538650549#0" modes='public'/>
    </person>
    <person id="94" depart="470.00" type="pedestrian">
        <personTrip from="-454323064" to="315087299#3" modes='public'/>
    </person>
    <person id="95" depart="475.00" type="pedestrian">
        <personTrip from="24535157#1" to="-621257566#1" modes='public'/>
    </person>
    <person id="96" depart="480.00" type="pedestrian">
        <personTrip from="-538650549#2" to="834530220" modes='public'/>
    </person>
    <person id="97" depart="485.00" type="pedestrian">
        <personTrip from="298460355#1" to="795311121.64" modes='public'/>
    </person>
    <person id="98" depart="490.00" type="pedestrian">
        <personTrip from="44669527#0" to="-298460270#1" modes='public'/>
    </person>
    <person id="99" depart="495.00" type="pedestrian">
        <personTrip from="gneE95" to="793877956#3" modes='public'/>
    </person>
    <person id="100" depart="500.00" type="pedestrian">
        <personTrip from="gneE118" to="834876447#0" modes='public'/>
    </person>
    <person id="101" depart="505.00" type="pedestrian">
        <personTrip from="793877980" to="-449265270#0" modes='public'/>
    </person>
    <person id="102" depart="510.00" type="pedestrian">
        <personTrip from="419909909#1" to="-462717451#0" modes='public'/>
    </person>
    <person id="103" depart="515.00" type="pedestrian">
        <personTrip from="131443671#3" to="-315087299#1" modes='public'/>
    </person>
    <person id="104" depart="520.00" type="pedestrian">
        <personTrip from="117947970#2" to="gneE74.137" modes='public'/>
    </person>
    <person id="105" depart="525.00" type="pedestrian">
        <personTrip from="-620937810#2" to="621671427" modes='public'/>
    </person>
    <person id="106" depart="530.00" type="pedestrian">
        <personTrip from="316161238#2" to="24535157#2" modes='public'/>
    </person>
    <person id="107" depart="535.00" type="pedestrian">
        <personTrip from="840022508#1" to="gneE93" modes='public'/>
    </person>
    <person id="108" depart="540.00" type="pedestrian">
        <personTrip from="44669535#5" to="538650549#0" modes='public'/>
    </person>
    <person id="109" depart="545.00" type="pedestrian">
        <personTrip from="-448092221" to="-793466805#1" modes='public'/>
    </person>
    <person id="110" depart="550.00" type="pedestrian">
        <personTrip from="gneE118" to="44669552#3" modes='public'/>
    </person>
    <person id="111" depart="555.00" type="pedestrian">
        <personTrip from="44669520#2" to="621156391#1.125" modes='public'/>
    </person>
    <person id="112" depart="560.00" type="pedestrian">
        <personTrip from="-298460357#0" to="44669553#6" modes='public'/>
    </person>
    <person id="113" depart="565.00" type="pedestrian">
        <personTrip from="44044883#4" to="793885078#0" modes='public'/>
    </person>
    <person id="114" depart="570.00" type="pedestrian">
        <personTrip from="-448092293#1" to="gneE100" modes='public'/>
    </person>
    <person id="115" depart="575.00" type="pedestrian">
        <personTrip from="-372693171#2" to="-449492024#1" modes='public'/>
    </person>
    <person id="116" depart="580.00" type="pedestrian">
        <personTrip from="447683193#0" to="485337611#0" modes='public'/>
    </person>
    <person id="117" depart="585.00" type="pedestrian">
        <personTrip from="-525823898#0" to="-44669539#2" modes='public'/>
    </person>
    <person id="118" depart="590.00" type="pedestrian">
        <personTrip from="801547008#1" to="-538444308#1" modes='public'/>
    </person>
    <person id="119" depart="595.00" type="pedestrian">
        <personTrip from="447683191#0" to="449378276" modes='public'/>
    </person>
    <person id="120" depart="600.00" type="pedestrian">
        <personTrip from="24450141#0" to="44669553#6" modes='public'/>
    </person>
    <person id="121" depart="605.00" type="pedestrian">
        <personTrip from="442518550#4" to="835653896#7" modes='public'/>
    </person>
    <person id="122" depart="610.00" type="pedestrian">
        <personTrip from="-454323256" to="538444308#1" modes='public'/>
    </person>
    <person id="123" depart="615.00" type="pedestrian">
        <personTrip from="-525823904#0.69" to="131443655#8" modes='public'/>
    </person>
    <person id="124" depart="620.00" type="pedestrian">
        <personTrip from="462717459#1" to="-793877954#3" modes='public'/>
    </person>
    <person id="125" depart="625.00" type="pedestrian">
        <personTrip from="-795866926#0.119" to="621156404" modes='public'/>
    </person>
    <person id="126" depart="630.00" type="pedestrian">
        <personTrip from="-36999942#0" to="343405425#0" modes='public'/>
    </person>
    <person id="127" depart="635.00" type="pedestrian">
        <personTrip from="gneE94.319" to="gneE94" modes='public'/>
    </person>
    <person id="128" depart="640.00" type="pedestrian">
        <personTrip from="-36999942#1" to="-462717287" modes='public'/>
    </person>
    <person id="129" depart="645.00" type="pedestrian">
        <personTrip from="-620937810#2" to="835653896#2" modes='public'/>
    </person>
    <person id="130" depart="650.00" type="pedestrian">
        <personTrip from="801546990#2" to="801546989#1" modes='public'/>
    </person>
    <person id="131" depart="655.00" type="pedestrian">
        <personTrip from="112973829#0" to="-449254430" modes='public'/>
    </person>
    <person id="132" depart="660.00" type="pedestrian">
        <personTrip from="793877956#0" to="525823904#2" modes='public'/>
    </person>
    <person id="133" depart="665.00" type="pedestrian">
        <personTrip from="449265268" to="gneE75" modes='public'/>
    </person>
    <person id="134" depart="670.00" type="pedestrian">
        <personTrip from="454323250" to="-112973835#2" modes='public'/>
    </person>
    <person id="135" depart="675.00" type="pedestrian">
        <personTrip from="792592959" to="-793877954#2" modes='public'/>
    </person>
    <person id="136" depart="680.00" type="pedestrian">
        <personTrip from="454323280#0" to="836664410.168" modes='public'/>
    </person>
    <person id="137" depart="685.00" type="pedestrian">
        <personTrip from="-44669552#1" to="-44669525" modes='public'/>
    </person>
    <person id="138" depart="690.00" type="pedestrian">
        <personTrip from="-442519315" to="44669535#1" modes='public'/>
    </person>
    <person id="139" depart="695.00" type="pedestrian">
        <personTrip from="-621254340" to="448092293#1" modes='public'/>
    </person>
    <person id="140" depart="700.00" type="pedestrian">
        <personTrip from="538650548#0" to="-454323253#0" modes='public'/>
    </person>
    <person id="141" depart="705.00" type="pedestrian">
        <personTrip from="451504028#3" to="-620937810#0.65" modes='public'/>
    </person>
    <person id="142" depart="710.00" type="pedestrian">
        <personTrip from="419909916#3" to="805819264#1" modes='public'/>
    </person>
    <person id="143" depart="715.00" type="pedestrian">
        <personTrip from="793877970#1" to="-441761562#3" modes='public'/>
    </person>
    <person id="144" depart="720.00" type="pedestrian">
        <personTrip from="24535157#3" to="-621257557#1" modes='public'/>
    </person>
    <person id="145" depart="725.00" type="pedestrian">
        <personTrip from="-112973829#4" to="621562723#1" modes='public'/>
    </person>
    <person id="146" depart="730.00" type="pedestrian">
        <personTrip from="454323080#0" to="-620937800#0" modes='public'/>
    </person>
    <person id="147" depart="735.00" type="pedestrian">
        <personTrip from="620937814#0.16" to="44669527#2" modes='public'/>
    </person>
    <person id="148" depart="740.00" type="pedestrian">
        <personTrip from="276937021#4" to="-131443653" modes='public'/>
    </person>
    <person id="149" depart="745.00" type="pedestrian">
        <personTrip from="-372693166#2" to="801546994" modes='public'/>
    </person>
    <person id="150" depart="750.00" type="pedestrian">
        <personTrip from="805819262" to="44669522#2" modes='public'/>
    </person>
    <person id="151" depart="755.00" type="pedestrian">
        <personTrip from="793877956#1" to="44669553#3" modes='public'/>
    </person>
    <person id="152" depart="760.00" type="pedestrian">
        <personTrip from="-447683190#2" to="-44669545#2" modes='public'/>
    </person>
    <person id="153" depart="765.00" type="pedestrian">
        <personTrip from="-793877981" to="803398778#0" modes='public'/>
    </person>
    <person id="154" depart="770.00" type="pedestrian">
        <personTrip from="69707916#2.222" to="795311121" modes='public'/>
    </person>
    <person id="155" depart="775.00" type="pedestrian">
        <personTrip from="803398778#0" to="-454323283#0" modes='public'/>
    </person>
    <person id="156" depart="780.00" type="pedestrian">
        <personTrip from="-538650549#2" to="-442386648#4.181" modes='public'/>
    </person>
    <person id="157" depart="785.00" type="pedestrian">
        <personTrip from="621655566#1" to="801546997#0" modes='public'/>
    </person>
    <person id="158" depart="790.00" type="pedestrian">
        <personTrip from="131445517" to="449378286#0" modes='public'/>
    </person>
    <person id="159" depart="795.00" type="pedestrian">
        <personTrip from="-448092221" to="834941701#0" modes='public'/>
    </person>
    <person id="160" depart="800.00" type="pedestrian">
        <personTrip from="795866926#2" to="gneE56" modes='public'/>
    </person>
    <person id="161" depart="805.00" type="pedestrian">
        <personTrip from="790946264#6" to="801546990#3" modes='public'/>
    </person>
    <person id="162" depart="810.00" type="pedestrian">
        <personTrip from="-131445524#0" to="620937801#2" modes='public'/>
    </person>
    <person id="163" depart="815.00" type="pedestrian">
        <personTrip from="-805819272#0" to="834960900" modes='public'/>
    </person>
    <person id="164" depart="820.00" type="pedestrian">
        <personTrip from="790749825#0" to="795866926#0" modes='public'/>
    </person>
    <person id="165" depart="825.00" type="pedestrian">
        <personTrip from="790946264#6" to="-620937814#0" modes='public'/>
    </person>
    <person id="166" depart="830.00" type="pedestrian">
        <personTrip from="66254174#3" to="-44660545" modes='public'/>
    </person>
    <person id="167" depart="835.00" type="pedestrian">
        <personTrip from="795866928#6" to="793885080#4" modes='public'/>
    </person>
    <person id="168" depart="840.00" type="pedestrian">
        <personTrip from="-503535578#1" to="792592958#6" modes='public'/>
    </person>
    <person id="169" depart="845.00" type="pedestrian">
        <personTrip from="348725324#0" to="-793877968" modes='public'/>
    </person>
    <person id="170" depart="850.00" type="pedestrian">
        <personTrip from="69707916#2" to="-503535578#9" modes='public'/>
    </person>
    <person id="171" depart="855.00" type="pedestrian">
        <personTrip from="-131445522#0" to="-454323085#2" modes='public'/>
    </person>
    <person id="172" depart="860.00" type="pedestrian">
        <personTrip from="-801547003" to="795866926#0" modes='public'/>
    </person>
    <person id="173" depart="865.00" type="pedestrian">
        <personTrip from="gneE109" to="-621562724#0" modes='public'/>
    </person>
    <person id="174" depart="870.00" type="pedestrian">
        <personTrip from="454323080#6" to="131443671#1" modes='public'/>
    </person>
    <person id="175" depart="875.00" type="pedestrian">
        <personTrip from="gneE72.260" to="44660563" modes='public'/>
    </person>
    <person id="176" depart="880.00" type="pedestrian">
        <personTrip from="836664410.168" to="-44669525" modes='public'/>
    </person>
    <person id="177" depart="885.00" type="pedestrian">
        <personTrip from="gneE23" to="-449378293#2" modes='public'/>
    </person>
    <person id="178" depart="890.00" type="pedestrian">
        <personTrip from="gneE106.637" to="-620937810#2" modes='public'/>
    </person>
    <person id="179" depart="895.00" type="pedestrian">
        <personTrip from="-44660545" to="296360972#0" modes='public'/>
    </person>
    <person id="180" depart="900.00" type="pedestrian">
        <personTrip from="559744149" to="-793885080#2" modes='public'/>
    </person>
    <person id="181" depart="905.00" type="pedestrian">
        <personTrip from="449254434" to="442386644#2" modes='public'/>
    </person>
    <person id="182" depart="910.00" type="pedestrian">
        <personTrip from="117947978" to="44669548#3" modes='public'/>
    </person>
    <person id="183" depart="915.00" type="pedestrian">
        <personTrip from="-559744079" to="526710359#1" modes='public'/>
    </person>
    <person id="184" depart="920.00" type="pedestrian">
        <personTrip from="--805819275#2" to="834863339" modes='public'/>
    </person>
    <person id="185" depart="925.00" type="pedestrian">
        <personTrip from="44669519#1" to="538650549#2" modes='public'/>
    </person>
    <person id="186" depart="930.00" type="pedestrian">
        <personTrip from="620939909#0" to="462717459#0" modes='public'/>
    </person>
    <person id="187" depart="935.00" type="pedestrian">
        <personTrip from="-E2" to="-36784500#1" modes='public'/>
    </person>
    <person id="188" depart="940.00" type="pedestrian">
        <personTrip from="454323280#1" to="-805819264#0" modes='public'/>
    </person>
    <person id="189" depart="945.00" type="pedestrian">
        <personTrip from="-793885080#2" to="793877971#1" modes='public'/>
    </person>
    <person id="190" depart="950.00" type="pedestrian">
        <personTrip from="538650549#3" to="-793877954#3" modes='public'/>
    </person>
    <person id="191" depart="955.00" type="pedestrian">
        <personTrip from="-793877982" to="131445524#1" modes='public'/>
    </person>
    <person id="192" depart="960.00" type="pedestrian">
        <personTrip from="131443671#5" to="-792592962" modes='public'/>
    </person>
    <person id="193" depart="965.00" type="pedestrian">
        <personTrip from="-44669545#1" to="24450141#1" modes='public'/>
    </person>
    <person id="194" depart="970.00" type="pedestrian">
        <personTrip from="836972055#4" to="495115543#0" modes='public'/>
    </person>
    <person id="195" depart="975.00" type="pedestrian">
        <personTrip from="805173894" to="449378242#1" modes='public'/>
    </person>
    <person id="196" depart="980.00" type="pedestrian">
        <personTrip from="-793877961#0" to="44669526#1" modes='public'/>
    </person>
    <person id="197" depart="985.00" type="pedestrian">
        <personTrip from="--296360974#1.21" to="-790946261" modes='public'/>
    </person>
    <person id="198" depart="990.00" type="pedestrian">
        <personTrip from="294908211#2" to="44669552#4" modes='public'/>
    </person>
    <person id="199" depart="995.00" type="pedestrian">
        <personTrip from="454323253#0" to="36784500#4" modes='public'/>
    </person>
    <person id="200" depart="1000.00" type="pedestrian">
        <personTrip from="298460351#1" to="-462717451#0" modes='public'/>
    </person>