<tazs>
    <taz id="1">
        <tazSource id="-796217838" weight="100"/>
        <tazSink id="-796217838" weight="100"/>
        <tazSource id="796217838" weight="100"/>
        <tazSink id="796217838" weight="100"/>
    </taz>
    <taz id="2">
        <tazSource id="-112973829#4" weight="100"/>
        <tazSink id="-112973829#4" weight="100"/>
        <tazSource id="-112973829#6" weight="100"/>
        <tazSink id="-112973829#6" weight="100"/>
        <tazSource id="-112973829#7" weight="100"/>
        <tazSink id="-112973829#7" weight="100"/>
        <tazSource id="-112973829#8" weight="100"/>
        <tazSink id="-112973829#8" weight="100"/>
        <tazSource id="-442386647#1" weight="100"/>
        <tazSink id="-442386647#1" weight="100"/>
        <tazSource id="112973829#4" weight="100"/>
        <tazSink id="112973829#4" weight="100"/>
        <tazSource id="112973829#6" weight="100"/>
        <tazSink id="112973829#6" weight="100"/>
        <tazSource id="112973829#7" weight="100"/>
        <tazSink id="112973829#7" weight="100"/>
        <tazSource id="112973829#8" weight="100"/>
        <tazSink id="112973829#8" weight="100"/>
    </taz>
    <taz id="3">
        <tazSource id="-44669544#1" weight="100"/>
        <tazSink id="-44669544#1" weight="100"/>
        <tazSource id="-44669544#7" weight="100"/>
        <tazSink id="-44669544#7" weight="100"/>
        <tazSource id="44669544#1" weight="100"/>
        <tazSink id="44669544#1" weight="100"/>
        <tazSource id="44669544#7" weight="100"/>
        <tazSink id="44669544#7" weight="100"/>
        <tazSource id="621671426" weight="100"/>
        <tazSink id="621671426" weight="100"/>
    </taz>
    <taz id="4">
        <tazSource id="-298460193" weight="100"/>
        <tazSink id="-298460193" weight="100"/>
        <tazSource id="-44669545#1" weight="100"/>
        <tazSink id="-44669545#1" weight="100"/>
        <tazSource id="-44669545#2" weight="100"/>
        <tazSink id="-44669545#2" weight="100"/>
        <tazSource id="-831711224#5" weight="100"/>
        <tazSink id="-831711224#5" weight="100"/>
        <tazSource id="298460193" weight="100"/>
        <tazSink id="298460193" weight="100"/>
    </taz>
    <taz id="5">
        <tazSource id="-525823881#2" weight="100"/>
        <tazSink id="-525823881#2" weight="100"/>
        <tazSource id="-525823881#3" weight="100"/>
        <tazSink id="-525823881#3" weight="100"/>
        <tazSource id="-525823883#0" weight="100"/>
        <tazSink id="-525823883#0" weight="100"/>
        <tazSource id="-525823898#0" weight="100"/>
        <tazSink id="-525823898#0" weight="100"/>
        <tazSource id="525823881#2" weight="100"/>
        <tazSink id="525823881#2" weight="100"/>
        <tazSource id="525823881#3" weight="100"/>
        <tazSink id="525823881#3" weight="100"/>
        <tazSource id="525823883#0" weight="100"/>
        <tazSink id="525823883#0" weight="100"/>
        <tazSource id="525823898#0" weight="100"/>
        <tazSink id="525823898#0" weight="100"/>
    </taz>
    <taz id="6">
        <tazSource id="-44669544#0" weight="100"/>
        <tazSink id="-44669544#0" weight="100"/>
        <tazSource id="419909916#0" weight="100"/>
        <tazSink id="419909916#0" weight="100"/>
        <tazSource id="419909927#4" weight="100"/>
        <tazSink id="419909927#4" weight="100"/>
        <tazSource id="44669544#0" weight="100"/>
        <tazSink id="44669544#0" weight="100"/>
    </taz>
    <taz id="7">
        <tazSource id="-44678824#0" weight="100"/>
        <tazSink id="-44678824#0" weight="100"/>
        <tazSource id="-44678824#0.263" weight="100"/>
        <tazSink id="-44678824#0.263" weight="100"/>
        <tazSource id="-44678824#1" weight="100"/>
        <tazSink id="-44678824#1" weight="100"/>
        <tazSource id="-449254430" weight="100"/>
        <tazSink id="-449254430" weight="100"/>
        <tazSource id="-449254434" weight="100"/>
        <tazSink id="-449254434" weight="100"/>
        <tazSource id="-525823878#2" weight="100"/>
        <tazSink id="-525823878#2" weight="100"/>
        <tazSource id="-525823881#1" weight="100"/>
        <tazSink id="-525823881#1" weight="100"/>
        <tazSource id="-834187231" weight="100"/>
        <tazSink id="-834187231" weight="100"/>
        <tazSource id="-gneE9" weight="100"/>
        <tazSink id="-gneE9" weight="100"/>
        <tazSource id="44678824#0" weight="100"/>
        <tazSink id="44678824#0" weight="100"/>
        <tazSource id="44678824#0.376" weight="100"/>
        <tazSink id="44678824#0.376" weight="100"/>
        <tazSource id="44678824#1" weight="100"/>
        <tazSink id="44678824#1" weight="100"/>
        <tazSource id="449254430" weight="100"/>
        <tazSink id="449254430" weight="100"/>
        <tazSource id="449254434" weight="100"/>
        <tazSink id="449254434" weight="100"/>
        <tazSource id="525823878#2" weight="100"/>
        <tazSink id="525823878#2" weight="100"/>
        <tazSource id="525823881#1" weight="100"/>
        <tazSink id="525823881#1" weight="100"/>
        <tazSource id="834187231" weight="100"/>
        <tazSink id="834187231" weight="100"/>
        <tazSource id="gneE9" weight="100"/>
        <tazSink id="gneE9" weight="100"/>
    </taz>
    <taz id="8">
        <tazSource id="-442386647#3" weight="100"/>
        <tazSink id="-442386647#3" weight="100"/>
        <tazSource id="-442386647#4" weight="100"/>
        <tazSink id="-442386647#4" weight="100"/>
        <tazSource id="-442386647#6" weight="100"/>
        <tazSink id="-442386647#6" weight="100"/>
    </taz>
    <taz id="13">
        <tazSource id="-447683186" weight="100"/>
        <tazSink id="-447683186" weight="100"/>
        <tazSource id="-447683190#2" weight="100"/>
        <tazSink id="-447683190#2" weight="100"/>
        <tazSource id="-447683193#1" weight="100"/>
        <tazSink id="-447683193#1" weight="100"/>
        <tazSource id="-447683193#2" weight="100"/>
        <tazSink id="-447683193#2" weight="100"/>
        <tazSource id="-448092196#0" weight="100"/>
        <tazSink id="-448092196#0" weight="100"/>
        <tazSource id="-448092196#2" weight="100"/>
        <tazSink id="-448092196#2" weight="100"/>
        <tazSource id="-448092196#3" weight="100"/>
        <tazSink id="-448092196#3" weight="100"/>
        <tazSource id="-538650550" weight="100"/>
        <tazSink id="-538650550" weight="100"/>
        <tazSource id="447683186" weight="100"/>
        <tazSink id="447683186" weight="100"/>
        <tazSource id="447683190#2" weight="100"/>
        <tazSink id="447683190#2" weight="100"/>
        <tazSource id="447683193#1" weight="100"/>
        <tazSink id="447683193#1" weight="100"/>
        <tazSource id="447683193#2" weight="100"/>
        <tazSink id="447683193#2" weight="100"/>
        <tazSource id="448092195#0" weight="100"/>
        <tazSink id="448092195#0" weight="100"/>
        <tazSource id="448092195#1" weight="100"/>
        <tazSink id="448092195#1" weight="100"/>
        <tazSource id="448092196#0" weight="100"/>
        <tazSink id="448092196#0" weight="100"/>
        <tazSource id="448092196#2" weight="100"/>
        <tazSink id="448092196#2" weight="100"/>
        <tazSource id="448092196#3" weight="100"/>
        <tazSink id="448092196#3" weight="100"/>
        <tazSource id="538650550" weight="100"/>
        <tazSink id="538650550" weight="100"/>
    </taz>
    <taz id="16">
        <tazSource id="-834530220" weight="100"/>
        <tazSink id="-834530220" weight="100"/>
        <tazSource id="44678822#0" weight="100"/>
        <tazSink id="44678822#0" weight="100"/>
        <tazSource id="44678822#1" weight="100"/>
        <tazSink id="44678822#1" weight="100"/>
        <tazSource id="44678822#2" weight="100"/>
        <tazSink id="44678822#2" weight="100"/>
        <tazSource id="44678822#2.28" weight="100"/>
        <tazSink id="44678822#2.28" weight="100"/>
        <tazSource id="834530220" weight="100"/>
        <tazSink id="834530220" weight="100"/>
    </taz>
    <taz id="17">
        <tazSource id="-131443671#4" weight="100"/>
        <tazSink id="-131443671#4" weight="100"/>
        <tazSource id="-131443671#5" weight="100"/>
        <tazSink id="-131443671#5" weight="100"/>
        <tazSource id="131443671#4" weight="100"/>
        <tazSink id="131443671#4" weight="100"/>
        <tazSource id="131443671#5" weight="100"/>
        <tazSink id="131443671#5" weight="100"/>
    </taz>
    <taz id="18">
        <tazSource id="-831711224#2" weight="100"/>
        <tazSink id="-831711224#2" weight="100"/>
    </taz>
    <taz id="19">
        <tazSource id="620937806#1.48" weight="500"/>
        <tazSink id="620937806#1.48" weight="500"/>
        <tazSource id="620937806#1.48.118" weight="500"/>
        <tazSink id="620937806#1.48.118" weight="500"/>
        <tazSource id="620937807#3" weight="500"/>
        <tazSink id="620937807#3" weight="500"/>
    </taz>
    <taz id="20">
        <tazSource id="-133427886#0" weight="100"/>
        <tazSink id="-133427886#0" weight="100"/>
        <tazSource id="-133427886#1" weight="100"/>
        <tazSink id="-133427886#1" weight="100"/>
        <tazSource id="133427886#0" weight="100"/>
        <tazSink id="133427886#0" weight="100"/>
        <tazSource id="133427886#1" weight="100"/>
        <tazSink id="133427886#1" weight="100"/>
        <tazSource id="442518549#2" weight="500"/>
        <tazSink id="442518549#2" weight="500"/>
        <tazSource id="442518549#2.185" weight="500"/>
        <tazSink id="442518549#2.185" weight="500"/>
    </taz>
    <taz id="21">
        <tazSource id="-131443671#1" weight="100"/>
        <tazSink id="-131443671#1" weight="100"/>
        <tazSource id="-131443671#2" weight="100"/>
        <tazSink id="-131443671#2" weight="100"/>
        <tazSource id="-131443671#3" weight="100"/>
        <tazSink id="-131443671#3" weight="100"/>
        <tazSource id="-447683190#0" weight="100"/>
        <tazSink id="-447683190#0" weight="100"/>
        <tazSource id="-447683190#1" weight="100"/>
        <tazSink id="-447683190#1" weight="100"/>
        <tazSource id="-447683191#0" weight="100"/>
        <tazSink id="-447683191#0" weight="100"/>
        <tazSource id="131443671#1" weight="100"/>
        <tazSink id="131443671#1" weight="100"/>
        <tazSource id="131443671#2" weight="100"/>
        <tazSink id="131443671#2" weight="100"/>
        <tazSource id="131443671#3" weight="100"/>
        <tazSink id="131443671#3" weight="100"/>
        <tazSource id="447683190#0" weight="100"/>
        <tazSink id="447683190#0" weight="100"/>
        <tazSource id="447683190#1" weight="100"/>
        <tazSink id="447683190#1" weight="100"/>
        <tazSource id="447683191#0" weight="100"/>
        <tazSink id="447683191#0" weight="100"/>
    </taz>
    <taz id="22">
        <tazSource id="-447683193#0" weight="100"/>
        <tazSink id="-447683193#0" weight="100"/>
        <tazSource id="447683193#0" weight="100"/>
        <tazSink id="447683193#0" weight="100"/>
        <tazSource id="gneE25.187" weight="500"/>
        <tazSink id="gneE25.187" weight="500"/>
        <tazSource id="gneE30" weight="500"/>
        <tazSink id="gneE30" weight="500"/>
    </taz>
    <taz id="23">
        <tazSource id="-44669552#2" weight="100"/>
        <tazSink id="-44669552#2" weight="100"/>
        <tazSource id="-44669552#3" weight="100"/>
        <tazSink id="-44669552#3" weight="100"/>
        <tazSource id="-44669552#4" weight="100"/>
        <tazSink id="-44669552#4" weight="100"/>
        <tazSource id="-44669552#4.82" weight="100"/>
        <tazSink id="-44669552#4.82" weight="100"/>
        <tazSource id="-834142382#1" weight="100"/>
        <tazSink id="-834142382#1" weight="100"/>
        <tazSource id="44669552#2" weight="100"/>
        <tazSink id="44669552#2" weight="100"/>
        <tazSource id="44669552#3" weight="100"/>
        <tazSink id="44669552#3" weight="100"/>
        <tazSource id="44669552#4" weight="100"/>
        <tazSink id="44669552#4" weight="100"/>
        <tazSource id="44669552#4.60" weight="100"/>
        <tazSink id="44669552#4.60" weight="100"/>
        <tazSource id="526710359#2" weight="500"/>
        <tazSink id="526710359#2" weight="500"/>
        <tazSource id="526710359#3" weight="500"/>
        <tazSink id="526710359#3" weight="500"/>
        <tazSource id="792592967#0.43.89" weight="500"/>
        <tazSink id="792592967#0.43.89" weight="500"/>
        <tazSource id="792592967#1" weight="500"/>
        <tazSink id="792592967#1" weight="500"/>
        <tazSource id="792592967#1.143" weight="500"/>
        <tazSink id="792592967#1.143" weight="500"/>
        <tazSource id="834142382#1" weight="100"/>
        <tazSink id="834142382#1" weight="100"/>
        <tazSource id="834876447#0" weight="500"/>
        <tazSink id="834876447#0" weight="500"/>
    </taz>
    <taz id="24">
        <tazSource id="117947975#6" weight="100"/>
        <tazSink id="117947975#6" weight="100"/>
        <tazSource id="117947975#7" weight="100"/>
        <tazSink id="117947975#7" weight="100"/>
    </taz>
    <taz id="25">
        <tazSource id="-442386648#4" weight="100"/>
        <tazSink id="-442386648#4" weight="100"/>
        <tazSource id="-442386648#4.181" weight="100"/>
        <tazSink id="-442386648#4.181" weight="100"/>
        <tazSource id="-442386648#5" weight="100"/>
        <tazSink id="-442386648#5" weight="100"/>
        <tazSource id="442386646" weight="100"/>
        <tazSink id="442386646" weight="100"/>
        <tazSource id="442386648#4" weight="100"/>
        <tazSink id="442386648#4" weight="100"/>
        <tazSource id="442386648#5" weight="100"/>
        <tazSink id="442386648#5" weight="100"/>
    </taz>
    <taz id="27">
        <tazSource id="-798639457#0" weight="100"/>
        <tazSink id="-798639457#0" weight="100"/>
        <tazSource id="-798639457#1" weight="100"/>
        <tazSink id="-798639457#1" weight="100"/>
        <tazSource id="-835653896#7" weight="100"/>
        <tazSink id="-835653896#7" weight="100"/>
        <tazSource id="798639457#0" weight="100"/>
        <tazSink id="798639457#0" weight="100"/>
        <tazSource id="798639457#1" weight="100"/>
        <tazSink id="798639457#1" weight="100"/>
        <tazSource id="835653896#7" weight="100"/>
        <tazSink id="835653896#7" weight="100"/>
    </taz>
    <taz id="28">
        <tazSource id="36999946#1.266" weight="500"/>
        <tazSink id="36999946#1.266" weight="500"/>
        <tazSource id="36999946#1.55" weight="500"/>
        <tazSink id="36999946#1.55" weight="500"/>
    </taz>
    <taz id="29">
        <tazSource id="-44669532#1" weight="100"/>
        <tazSink id="-44669532#1" weight="100"/>
        <tazSource id="-793885080#3" weight="100"/>
        <tazSink id="-793885080#3" weight="100"/>
        <tazSource id="44669522#0" weight="100"/>
        <tazSink id="44669522#0" weight="100"/>
        <tazSource id="44669532#1" weight="100"/>
        <tazSink id="44669532#1" weight="100"/>
        <tazSource id="621156406#0" weight="100"/>
        <tazSink id="621156406#0" weight="100"/>
        <tazSource id="621562724#2" weight="100"/>
        <tazSink id="621562724#2" weight="100"/>
        <tazSource id="69707916#0" weight="100"/>
        <tazSink id="69707916#0" weight="100"/>
        <tazSource id="69707955#3" weight="100"/>
        <tazSink id="69707955#3" weight="100"/>
    </taz>
    <taz id="30">
        <tazSource id="-838913793" weight="100"/>
        <tazSink id="-838913793" weight="100"/>
        <tazSource id="838913793" weight="100"/>
        <tazSink id="838913793" weight="100"/>
    </taz>
    <taz id="31">
        <tazSource id="36999945#2" weight="100"/>
        <tazSink id="36999945#2" weight="100"/>
    </taz>
    <taz id="32">
        <tazSource id="454323074" weight="100"/>
        <tazSink id="454323074" weight="100"/>
    </taz>
    <taz id="33">
        <tazSource id="69707916#2" weight="100"/>
        <tazSink id="69707916#2" weight="100"/>
        <tazSource id="69707916#2.85" weight="100"/>
        <tazSink id="69707916#2.85" weight="100"/>
        <tazSource id="69707955#1" weight="100"/>
        <tazSink id="69707955#1" weight="100"/>
    </taz>
    <taz id="34">
        <tazSource id="-620937810#0" weight="100"/>
        <tazSink id="-620937810#0" weight="100"/>
        <tazSource id="-620937810#1" weight="100"/>
        <tazSink id="-620937810#1" weight="100"/>
        <tazSource id="-620937810#2" weight="100"/>
        <tazSink id="-620937810#2" weight="100"/>
        <tazSource id="-620937810#3" weight="100"/>
        <tazSink id="-620937810#3" weight="100"/>
        <tazSource id="44669522#1" weight="100"/>
        <tazSink id="44669522#1" weight="100"/>
        <tazSource id="44669522#2" weight="100"/>
        <tazSink id="44669522#2" weight="100"/>
        <tazSource id="44669522#3" weight="100"/>
        <tazSink id="44669522#3" weight="100"/>
        <tazSource id="620937810#1" weight="100"/>
        <tazSink id="620937810#1" weight="100"/>
        <tazSource id="620937810#2" weight="100"/>
        <tazSink id="620937810#2" weight="100"/>
        <tazSource id="620937810#3" weight="100"/>
        <tazSink id="620937810#3" weight="100"/>
    </taz>
    <taz id="35">
        <tazSource id="69707916#1" weight="100"/>
        <tazSink id="69707916#1" weight="100"/>
        <tazSource id="69707955#2" weight="100"/>
        <tazSink id="69707955#2" weight="100"/>
    </taz>
    <taz id="36">
        <tazSource id="621655563#2" weight="100"/>
        <tazSink id="621655563#2" weight="100"/>
        <tazSource id="795311148#2" weight="100"/>
        <tazSink id="795311148#2" weight="100"/>
    </taz>
    <taz id="37">
        <tazSource id="-621164893#1" weight="100"/>
        <tazSink id="-621164893#1" weight="100"/>
        <tazSource id="454323072" weight="100"/>
        <tazSink id="454323072" weight="100"/>
        <tazSource id="621164893#0" weight="100"/>
        <tazSink id="621164893#0" weight="100"/>
        <tazSource id="621655563#1" weight="100"/>
        <tazSink id="621655563#1" weight="100"/>
        <tazSource id="621655565" weight="100"/>
        <tazSink id="621655565" weight="100"/>
        <tazSource id="795311148#3" weight="100"/>
        <tazSink id="795311148#3" weight="100"/>
    </taz>
    <taz id="38">
        <tazSource id="-451504028#3" weight="100"/>
        <tazSink id="-451504028#3" weight="100"/>
        <tazSource id="451504028#3" weight="100"/>
        <tazSink id="451504028#3" weight="100"/>
        <tazSource id="451504028#3.122" weight="100"/>
        <tazSink id="451504028#3.122" weight="100"/>
        <tazSource id="621655563#2.74" weight="100"/>
        <tazSink id="621655563#2.74" weight="100"/>
        <tazSource id="69707916#2.222" weight="100"/>
        <tazSink id="69707916#2.222" weight="100"/>
        <tazSource id="69707955#0" weight="100"/>
        <tazSink id="69707955#0" weight="100"/>
        <tazSource id="795311148#1" weight="100"/>
        <tazSink id="795311148#1" weight="100"/>
    </taz>
    <taz id="39">
        <tazSource id="790946264#0" weight="100"/>
        <tazSink id="790946264#0" weight="100"/>
        <tazSource id="790946264#1" weight="100"/>
        <tazSink id="790946264#1" weight="100"/>
        <tazSource id="790946264#2" weight="100"/>
        <tazSink id="790946264#2" weight="100"/>
        <tazSource id="790946264#3" weight="100"/>
        <tazSink id="790946264#3" weight="100"/>
        <tazSource id="790946264#5" weight="100"/>
        <tazSink id="790946264#5" weight="100"/>
    </taz>
    <taz id="41">
        <tazSource id="-448092249" weight="100"/>
        <tazSink id="-448092249" weight="100"/>
        <tazSource id="-537903484" weight="100"/>
        <tazSink id="-537903484" weight="100"/>
        <tazSource id="-gneE14" weight="500"/>
        <tazSink id="-gneE14" weight="500"/>
        <tazSource id="-gneE62" weight="100"/>
        <tazSink id="-gneE62" weight="100"/>
        <tazSource id="44669539#0" weight="100"/>
        <tazSink id="44669539#0" weight="100"/>
        <tazSource id="44669539#2" weight="100"/>
        <tazSink id="44669539#2" weight="100"/>
        <tazSource id="448092249" weight="100"/>
        <tazSink id="448092249" weight="100"/>
        <tazSource id="537903484" weight="100"/>
        <tazSink id="537903484" weight="100"/>
        <tazSource id="gneE42.92" weight="500"/>
        <tazSink id="gneE42.92" weight="500"/>
        <tazSource id="gneE43.57.186" weight="500"/>
        <tazSink id="gneE43.57.186" weight="500"/>
        <tazSource id="gneE62" weight="100"/>
        <tazSink id="gneE62" weight="100"/>
    </taz>
    <taz id="42">
        <tazSource id="503535578#6" weight="100"/>
        <tazSink id="503535578#6" weight="100"/>
        <tazSource id="503535578#8" weight="100"/>
        <tazSink id="503535578#8" weight="100"/>
        <tazSource id="503535578#9.71" weight="100"/>
        <tazSink id="503535578#9.71" weight="100"/>
        <tazSource id="834617776#2" weight="500"/>
        <tazSink id="834617776#2" weight="500"/>
        <tazSource id="gneE42.272" weight="500"/>
        <tazSink id="gneE42.272" weight="500"/>
        <tazSource id="gneE43" weight="500"/>
        <tazSink id="gneE43" weight="500"/>
        <tazSource id="gneE53" weight="500"/>
        <tazSink id="gneE53" weight="500"/>
    </taz>
    <taz id="43">
        <tazSource id="834617775" weight="500"/>
        <tazSink id="834617775" weight="500"/>
        <tazSource id="gneE41" weight="500"/>
        <tazSink id="gneE41" weight="500"/>
        <tazSource id="gneE42" weight="500"/>
        <tazSink id="gneE42" weight="500"/>
    </taz>
    <taz id="44">
        <tazSource id="36999945#3" weight="100"/>
        <tazSink id="36999945#3" weight="100"/>
        <tazSource id="36999945#4" weight="100"/>
        <tazSink id="36999945#4" weight="100"/>
        <tazSource id="36999945#5" weight="100"/>
        <tazSink id="36999945#5" weight="100"/>
    </taz>
    <taz id="46">
        <tazSource id="-131443671#0" weight="100"/>
        <tazSink id="-131443671#0" weight="100"/>
        <tazSource id="-834187230#0" weight="100"/>
        <tazSink id="-834187230#0" weight="100"/>
        <tazSource id="131443671#0" weight="100"/>
        <tazSink id="131443671#0" weight="100"/>
        <tazSource id="442518549#0" weight="500"/>
        <tazSink id="442518549#0" weight="500"/>
        <tazSource id="442518549#1" weight="500"/>
        <tazSink id="442518549#1" weight="500"/>
        <tazSource id="795509472#5" weight="500"/>
        <tazSink id="795509472#5" weight="500"/>
        <tazSource id="795509472#5.140" weight="500"/>
        <tazSink id="795509472#5.140" weight="500"/>
        <tazSource id="795509472#6" weight="500"/>
        <tazSink id="795509472#6" weight="500"/>
        <tazSource id="834187230#0" weight="100"/>
        <tazSink id="834187230#0" weight="100"/>
    </taz>
    <taz id="47">
        <tazSource id="-538650548#2" weight="100"/>
        <tazSink id="-538650548#2" weight="100"/>
        <tazSource id="442386644#2" weight="100"/>
        <tazSink id="442386644#2" weight="100"/>
        <tazSource id="442386645#1.13" weight="100"/>
        <tazSink id="442386645#1.13" weight="100"/>
        <tazSource id="454323080#0" weight="100"/>
        <tazSink id="454323080#0" weight="100"/>
        <tazSource id="454323080#1" weight="100"/>
        <tazSink id="454323080#1" weight="100"/>
        <tazSource id="834617776#6.150" weight="500"/>
        <tazSink id="834617776#6.150" weight="500"/>
        <tazSource id="834633048#2" weight="500"/>
        <tazSink id="834633048#2" weight="500"/>
        <tazSource id="gneE56" weight="500"/>
        <tazSink id="gneE56" weight="500"/>
    </taz>
    <taz id="48">
        <tazSource id="44669526#0" weight="100"/>
        <tazSink id="44669526#0" weight="100"/>
        <tazSource id="44669526#1" weight="100"/>
        <tazSink id="44669526#1" weight="100"/>
        <tazSource id="44669526#2" weight="100"/>
        <tazSink id="44669526#2" weight="100"/>
        <tazSource id="454323080#4" weight="100"/>
        <tazSink id="454323080#4" weight="100"/>
        <tazSource id="454323080#5" weight="100"/>
        <tazSink id="454323080#5" weight="100"/>
        <tazSource id="454323080#6" weight="100"/>
        <tazSink id="454323080#6" weight="100"/>
        <tazSource id="795866926#2" weight="100"/>
        <tazSink id="795866926#2" weight="100"/>
        <tazSource id="795866926#4" weight="100"/>
        <tazSink id="795866926#4" weight="100"/>
        <tazSource id="795866926#4.16" weight="100"/>
        <tazSink id="795866926#4.16" weight="100"/>
        <tazSource id="795866926#5" weight="100"/>
        <tazSink id="795866926#5" weight="100"/>
    </taz>
    <taz id="49">
        <tazSource id="-44669553#6" weight="100"/>
        <tazSink id="-44669553#6" weight="100"/>
        <tazSource id="316161635#6" weight="100"/>
        <tazSink id="316161635#6" weight="100"/>
        <tazSource id="44669553#6" weight="100"/>
        <tazSink id="44669553#6" weight="100"/>
    </taz>
    <taz id="50">
        <tazSource id="-449258902#1" weight="100"/>
        <tazSink id="-449258902#1" weight="100"/>
        <tazSource id="449258902#1" weight="100"/>
        <tazSink id="449258902#1" weight="100"/>
    </taz>
    <taz id="51">
        <tazSource id="-315087299#3" weight="100"/>
        <tazSink id="-315087299#3" weight="100"/>
        <tazSource id="-44669553#1" weight="100"/>
        <tazSink id="-44669553#1" weight="100"/>
        <tazSource id="-44669553#3" weight="100"/>
        <tazSink id="-44669553#3" weight="100"/>
        <tazSource id="-44669553#4" weight="100"/>
        <tazSink id="-44669553#4" weight="100"/>
        <tazSource id="-449258963#0" weight="100"/>
        <tazSink id="-449258963#0" weight="100"/>
        <tazSource id="-449258972#0" weight="100"/>
        <tazSink id="-449258972#0" weight="100"/>
        <tazSource id="-836267096" weight="100"/>
        <tazSink id="-836267096" weight="100"/>
        <tazSource id="315087299#3" weight="100"/>
        <tazSink id="315087299#3" weight="100"/>
        <tazSource id="44669553#1" weight="100"/>
        <tazSink id="44669553#1" weight="100"/>
        <tazSource id="44669553#3" weight="100"/>
        <tazSink id="44669553#3" weight="100"/>
        <tazSource id="44669553#4" weight="100"/>
        <tazSink id="44669553#4" weight="100"/>
        <tazSource id="449258963#0" weight="100"/>
        <tazSink id="449258963#0" weight="100"/>
        <tazSource id="449258972#0" weight="100"/>
        <tazSink id="449258972#0" weight="100"/>
        <tazSource id="836267096" weight="100"/>
        <tazSink id="836267096" weight="100"/>
    </taz>
    <taz id="52">
        <tazSource id="-442386643#0" weight="100"/>
        <tazSink id="-442386643#0" weight="100"/>
        <tazSource id="-442386643#1.13" weight="100"/>
        <tazSink id="-442386643#1.13" weight="100"/>
        <tazSource id="442386643#0" weight="100"/>
        <tazSink id="442386643#0" weight="100"/>
        <tazSource id="442386643#1" weight="100"/>
        <tazSink id="442386643#1" weight="100"/>
        <tazSource id="442386644#0" weight="100"/>
        <tazSink id="442386644#0" weight="100"/>
        <tazSource id="44669526#4" weight="100"/>
        <tazSink id="44669526#4" weight="100"/>
        <tazSource id="454323080#2" weight="100"/>
        <tazSink id="454323080#2" weight="100"/>
        <tazSource id="454323080#3" weight="100"/>
        <tazSink id="454323080#3" weight="100"/>
    </taz>
    <taz id="53">
        <tazSource id="685088112#0" weight="500"/>
        <tazSink id="685088112#0" weight="500"/>
        <tazSource id="685088112#1" weight="500"/>
        <tazSink id="685088112#1" weight="500"/>
    </taz>
    <taz id="56">
        <tazSource id="131443653" weight="100"/>
        <tazSink id="131443653" weight="100"/>
        <tazSource id="621156409" weight="500"/>
        <tazSink id="621156409" weight="500"/>
        <tazSource id="621156412" weight="100"/>
        <tazSink id="621156412" weight="100"/>
        <tazSource id="685088109" weight="500"/>
        <tazSink id="685088109" weight="500"/>
        <tazSource id="801547005" weight="100"/>
        <tazSink id="801547005" weight="100"/>
        <tazSource id="832153225" weight="500"/>
        <tazSink id="832153225" weight="500"/>
    </taz>
    <taz id="59">
        <tazSource id="-276937021#3" weight="100"/>
        <tazSink id="-276937021#3" weight="100"/>
        <tazSource id="276937021#3" weight="100"/>
        <tazSink id="276937021#3" weight="100"/>
    </taz>
    <taz id="60">
        <tazSource id="51229439#2" weight="500"/>
        <tazSink id="51229439#2" weight="500"/>
    </taz>
    <taz id="61">
        <tazSource id="-276937021#1" weight="100"/>
        <tazSink id="-276937021#1" weight="100"/>
        <tazSource id="-276937021#2" weight="100"/>
        <tazSink id="-276937021#2" weight="100"/>
        <tazSource id="276937021#1" weight="100"/>
        <tazSink id="276937021#1" weight="100"/>
        <tazSource id="276937021#2" weight="100"/>