<?xml version="1.0" encoding="UTF-8"?>
<!-- generated on 2022-07-12 17:06:15.520787 by $Id: ptlines2flows.py v1_3_1+0313-ccb31df3eb jakob.erdmann@dlr.de 2019-09-02 13:26:32 +0200 $ v1_12_0+0000-800cb422fa4
  options: -n ../tw_rdc_case/output_background/osm.net.xml -s ../tw_rdc_case/output_background/busStops.xml -l ../tw_rdc_case/cache/busLines.xml -o ../tw_rdc_case/output_background/bus.rou.xml -p 600 -b 0 -e 3600 <doubleminus>min-stops 0
-->
<routes xmlns:xsi="http://www.w3.org/2001/XMLSchema-instance" xsi:noNamespaceSchemaLocation="http://sumo.dlr.de/xsd/routes_file.xsd">
    <vType id="bus" vClass="bus"/>
    <vType id="tram" vClass="tram"/>
    <vType id="train" vClass="rail"/>
    <vType id="subway" vClass="rail_urban"/>
    <vType id="light_rail" vClass="rail_urban"/>
    <vType id="monorail" vClass="rail"/>
    <vType id="trolleybus" vClass="bus"/>
    <vType id="aerialway" vClass="bus"/>
    <vType id="ferry" vClass="ship"/>
    <route id="bus_900000144774:0" edges="793877961#1" >
        <stop busStop="900000144774_BV11376732" duration="30.00" until="41.0"/> <!-- 观前公园 -->
    </route>
    <route id="bus_900000149460:0" edges="-442386648#0" >
        <stop busStop="BV10502792_-442386648#0" duration="30.00" until="38.0"/> <!-- 儿童医院景德路院区 -->
    </route>
    <route id="bus_900000100626:0" edges="44669527#2" >
        <stop busStop="BV10132800_44669527#2" duration="30.00" until="45.0"/> <!-- 大公园 -->
    </route>
    <route id="bus_900000100627:0" edges="-44669527#2" >
        <stop busStop="BV10132800_-44669527#2" duration="30.00" until="43.0"/> <!-- 大公园 -->
    </route>
    <route id="bus_900000055757:0" edges="44660548 117947970#0 117947970#1 117947970#2 117947970#3 117947975#2 117947975#5" >
        <stop busStop="900000055757_BV10676642" duration="30.00" until="36.0"/> <!-- 竹辉桥 -->
        <stop busStop="900000055757_BV10676639" duration="30.00" until="226.0"/> <!-- 南园北路 -->
    </route>
    <route id="bus_900000055756:0" edges="790749825#4 621156398#0 621156398#1 44669548#0 44669548#1 44669548#3 790946263 419912484#0 419912484#1 419912484#1.152 419912484#3 419912509#1 419912509#3 419912509#4 419912508" >
        <stop busStop="900000055756_BV10735304" duration="30.00" until="49.0"/> <!-- 南门 -->
        <stop busStop="900000055756_BV10676639" duration="30.00" until="173.0"/> <!-- 南园北路 -->
        <stop busStop="900000055756_BV10676642" duration="30.00" until="291.0"/> <!-- 竹辉桥 -->
    </route>
    <route id="bus_320500022828:0" edges="815152495 792592966#0 792592966#1 -442518548#1.9 -805819275#2 526710359#6 485337612 793885077#0 793885077#1 621156408 793885079 621156411#0" >
        <stop busStop="BV10129992_815152495" duration="30.00" until="39.0"/> <!-- 乐桥 -->
        <stop busStop="BV10137035_621156411#0" duration="30.00" until="318.0"/> <!-- 临顿路 -->
    </route>
    <route id="bus_320500010177:0" edges="802095853#2 419912484#3 419912509#1 419912509#3 419912509#4 419912508 131443668#1 131443668#1.229" >
        <stop busStop="BV10129957_802095853#2" duration="30.00" until="173.0"/> <!-- 南园桥北 -->
        <stop busStop="BV10129956_419912509#3" duration="30.00" until="317.0"/> <!-- 桂花公园 -->
        <stop busStop="BV10130357_131443668#1.229" duration="30.00" until="415.0"/> <!-- 觅渡桥北 -->
    </route>
    <route id="bus_320500010188:0" edges="526710359#3 526710359#4 526710359#4.155 526710359#6 485337612 793885077#0 793885077#1 621156408 793885079 621156411#0 621156411#1 621156410 801547007#0 801547007#1 801546987 116730242#0 116730242#1 116730242#3" >
        <stop busStop="BV10129989_526710359#3" duration="30.00" until="50.0"/> <!-- 养育巷 -->
        <stop busStop="BV10129991_793885077#0" duration="30.00" until="174.0"/> <!-- 乐桥 -->
        <stop busStop="BV10131202_621156411#0" duration="30.00" until="331.0"/> <!-- 双塔 -->
        <stop busStop="BV10129997_116730242#3" duration="30.00" until="443.0"/> <!-- 相门 -->
    </route>
    <route id="bus_320500010162:0" edges="802095853#2 419912484#3 419912509#1 419912509#3 419912509#4 419912508 131443668#1 131443668#1.229" >
        <stop busStop="BV10129957_802095853#2" duration="30.00" until="141.0"/> <!-- 南园桥北 -->
        <stop busStop="BV10959414_419912484#3" duration="30.00" until="252.0"/> <!-- 桂花新村北 -->
        <stop busStop="BV10129956_419912509#3" duration="30.00" until="362.0"/> <!-- 桂花公园 -->
        <stop busStop="BV10130357_131443668#1.229" duration="30.00" until="459.0"/> <!-- 觅渡桥北 -->
    </route>
    <route id="bus_900000170740:0" edges="-790946264#2 gneE103 620937806#1.48 620937806#1.48.118 620937806#1.48.173 620937806#2 620937806#2.82 -gneE10 620937798 454323077 525823902 525823901#1" >
        <stop busStop="BV10130643_-790946264#2" duration="30.00" until="51.0"/> <!-- 网师园北 -->
        <stop busStop="BV10849175_gneE103" duration="30.00" until="408.0"/> <!-- 三元坊 -->
        <stop busStop="BV11319205_525823901#1" duration="30.00" until="557.0"/> <!-- 轮船码头首末站 -->
    </route>
    <route id="bus_320500010073:0" edges="526710359#1 526710359#2 526710359#3 526710359#4 526710359#4.155 526710359#6 485337612 793885077#0 793885077#1 621156408 793885079 685088109 801547007#0 801547007#1 801546987 116730242#0 116730242#1 116730242#3" >
        <stop busStop="BV10129988_526710359#1" duration="30.00" until="50.0"/> <!-- 学士街 -->
        <stop busStop="BV10129989_526710359#3" duration="30.00" until="230.0"/> <!-- 养育巷 -->
        <stop busStop="BV10129991_793885077#0" duration="30.00" until="351.0"/> <!-- 乐桥 -->
        <stop busStop="BV10129993_621156408" duration="30.00" until="410.0"/> <!-- 市一中 -->
        <stop busStop="BV10129997_116730242#3" duration="30.00" until="567.0"/> <!-- 相门 -->
    </route>
    <route id="bus_320500010132:0" edges="gneE10 gneE10.173 gneE10.199.4 419909909#0 419909909#1 620939909#0 620939909#1 525823904#0 525823904#1 525823904#2 525823904#3 525823904#4 525823904#5 -538444308#3 -538444308#1 -834960900 44669535#6 44669535#7 44669535#8 801546992 801546998#0" >
        <stop busStop="BV10130305_gneE10" duration="30.00" until="144.0"/> <!-- 南门 -->
        <stop busStop="BV11067676_525823904#2" duration="30.00" until="275.0"/> <!-- 东大街 -->
        <stop busStop="BV11067682_-538444308#1" duration="30.00" until="403.0"/> <!-- 司前街 -->
        <stop busStop="BV10130301_44669535#7" duration="30.00" until="466.0"/> <!-- 吉利桥 -->
        <stop busStop="BV10129906_801546998#0" duration="30.00" until="565.0"/> <!-- 姑胥桥 -->
    </route>
    <route id="bus_320500022829:0" edges="51229439#0.188 51229439#1 51229439#2 51229439#4 685088112#0 685088112#1 131443653 801547005 621156412 621156411#0 621156411#1 621156410 131443653 801547005 621156412 832153225 801547008#0 801547008#1 801547008#2 801547008#3 801547008#4 621156407#0 621156407#1 621156407#2 621156407#3 526710358#0 792592967#0 792592967#0.31 296360709#0 296360709#1 -525823906#0 gneE68 gneE68.78 815152496 815152495" >
        <stop busStop="320500022829_BV10129998" duration="30.00" until="43.0"/> <!-- 相门 -->
        <stop busStop="BV10137035_621156411#0" duration="30.00" until="277.0"/> <!-- 临顿路 -->
        <stop busStop="BV10129992_815152495" duration="30.00" until="598.0"/> <!-- 乐桥 -->
    </route>
    <route id="bus_320500010074:0" edges="51229439#2 51229439#4 685088112#0 685088112#1 621156409 832153225 801547008#0 801547008#1 801547008#2 801547008#3 801547008#4 621156407#0 621156407#1 621156407#2 621156407#3 526710358#0 792592967#0 792592967#0.31 792592967#0.43 792592967#0.43.89 792592967#1 792592967#1.143 834876447#0 834876447#1 834876447#2 834876447#3" >
        <stop busStop="BV10129997_51229439#2" duration="30.00" until="40.0"/> <!-- 相门 -->
        <stop busStop="BV10129993_801547008#3" duration="30.00" until="227.0"/> <!-- 市一中 -->
        <stop busStop="BV10129991_621156407#0" duration="30.00" until="316.0"/> <!-- 乐桥 -->
        <stop busStop="BV10129989_792592967#1" duration="30.00" until="452.0"/> <!-- 养育巷 -->
        <stop busStop="BV10129988_834876447#3" duration="30.00" until="606.0"/> <!-- 学士街 -->
    </route>
    <route id="bus_900000045733:0" edges="834617776#6 834617776#6.150 792592964#0 792592964#0.85 792592964#1 793877960#0 793877960#1 793877960#1.81 815152496 815152495 792592966#0 gneE87 gneE87.96 792592966#2.74 792592966#3 792592966#3.78 792592966#4.175 gneE99 621156401#1.258 620937806#0 620937806#0.31 620937806#1 620937806#1.48 620937806#1.48.118 620937806#1.48.173 620937806#2 620937806#2.82 419909909#0 419909909#1 620939909#0 620939909#1 620937801#0 620937801#0.87" >
        <stop busStop="900000045733_BV11654148" duration="30.00" until="44.0"/> <!-- 观前街西 -->
        <stop busStop="900000045733_BV11611295" duration="30.00" until="125.0"/> <!-- 怡园 -->
        <stop busStop="900000045733_BV10610594" duration="30.00" until="434.0"/> <!-- 沧浪亭 -->
        <stop busStop="900000045733_BV10590467" duration="30.00" until="601.0"/> <!-- 盘门景区 -->
    </route>
    <route id="bus_320500010187:0" edges="51229439#2 51229439#4 685088112#0 685088112#1 621156409 832153225 801547008#0 801547008#1 801547008#2 801547008#3 801547008#4 621156407#0" >
        <stop busStop="BV10129997_51229439#2" duration="30.00" until="108.0"/> <!-- 相门 -->
        <stop busStop="BV10129993_801547008#3" duration="30.00" until="297.0"/> <!-- 市一中 -->
        <stop busStop="BV10129991_621156407#0" duration="30.00" until="388.0"/> <!-- 乐桥 -->
    </route>
    <route id="bus_320500010097:0" edges="gneE10 gneE10.173 gneE10.199.4 419909909#0 419909909#1 620939909#0 620939909#1 620937801#0 620937801#0.87 620937801#1 620937801#2 -36784500#4 -36784500#3 -36784500#1 -36784500#0 -792592960#3 -792592960#2 -792592960#1 -36784700#1 -792592959 792592958#0 792592958#1 792592958#2 792592958#2.48 -834142382#5 -834142382#4 834142382#4 834142382#5 44669535#6 44669535#7 44669535#8 801546992 801546998#0" >
        <stop busStop="BV10130305_gneE10" duration="30.00" until="49.0"/> <!-- 南门 -->
        <stop busStop="BV10130639_620937801#0.87" duration="30.00" until="182.0"/> <!-- 盘门景区北 -->
        <stop busStop="BV10400025_-36784500#1" duration="30.00" until="273.0"/> <!-- 西大街 -->
        <stop busStop="BV10400024_-36784700#1" duration="30.00" until="370.0"/> <!-- 吉庆街 -->
        <stop busStop="BV10129906_801546998#0" duration="30.00" until="622.0"/> <!-- 姑胥桥 -->
    </route>
    <route id="bus_320500010098:0" edges="526710359#1 526710359#2 526710359#3 526710359#4 526710359#4.155 526710359#6 485337612 793885077#0 793885077#1 621156408 793885079 621156411#0 621156411#1 621156410 801547007#0 801547007#1 801546987 116730242#0 116730242#1 116730242#3" >
        <stop busStop="BV10129988_526710359#1" duration="30.00" until="82.0"/> <!-- 学士街 -->
        <stop busStop="BV10129989_526710359#3" duration="30.00" until="262.0"/> <!-- 养育巷 -->
        <stop busStop="BV10129991_793885077#0" duration="30.00" until="382.0"/> <!-- 乐桥 -->
        <stop busStop="BV10131202_621156411#0" duration="30.00" until="515.0"/> <!-- 双塔 -->
        <stop busStop="BV10129997_116730242#3" duration="30.00" until="627.0"/> <!-- 相门 -->
    </route>
    <route id="bus_320500010099:0" edges="51229439#2 51229439#4 685088112#0 685088112#1 621156409 832153225 801547008#0 801547008#1 801547008#2 801547008#3 801547008#4 621156407#0 621156407#1 621156407#2 621156407#3 526710358#0 792592967#0 792592967#0.31 792592967#0.43 792592967#0.43.89 792592967#1 792592967#1.143 834876447#0 834876447#1 834876447#2 834876447#3" >
        <stop busStop="BV10129997_51229439#2" duration="30.00" until="107.0"/> <!-- 相门 -->
        <stop busStop="BV10129993_801547008#3" duration="30.00" until="297.0"/> <!-- 市一中 -->
        <stop busStop="BV10129991_621156407#0" duration="30.00" until="359.0"/> <!-- 乐桥 -->
        <stop busStop="BV10129989_792592967#1" duration="30.00" until="487.0"/> <!-- 养育巷 -->
        <stop busStop="BV10129988_834876447#3" duration="30.00" until="600.0"/> <!-- 学士街 -->
    </route>
    <route id="bus_320500010113:0" edges="gneE27 --gneE14.233 442518549#6 834617775 gneE41 gneE41.86 gneE41.86.189 834617776#2 gneE59 834617776#4 834617776#5 834617776#6 834617776#6.150 -442386648#8 -442386648#7 -442386648#6 -442386648#5 -442386648#4 -442386648#4.181 -442386648#3 -442386648#2 -442386648#1 -442386648#0 -834863339 -66254174#3 -66254174#2" >
        <stop busStop="BV10129588_gneE27" duration="30.00" until="77.0"/> <!-- 平门 -->
        <stop busStop="BV10129589_gneE41" duration="30.00" until="156.0"/> <!-- 北寺塔 -->
        <stop busStop="BV10129596_gneE59" duration="30.00" until="278.0"/> <!-- 接驾桥 -->
        <stop busStop="BV10129910_834617776#6" duration="30.00" until="350.0"/> <!-- 察院场观前街西 -->
        <stop busStop="BV10131194_-442386648#4" duration="30.00" until="476.0"/> <!-- 察院场 -->
        <stop busStop="BV10502792_-442386648#0" duration="30.00" until="595.0"/> <!-- 儿童医院景德路院区 -->
        <stop busStop="BV11067361_-66254174#2" duration="30.00" until="662.0"/> <!-- 慈济 -->
    </route>
    <route id="bus_320500010134:0" edges="526710359#1 526710359#2 526710359#3 526710359#4 526710359#4.155 526710359#6 485337612 793885077#0 793885077#1 621156408 793885079 621156411#0 621156411#1 621156410 801547007#0 801547007#1 801546987 116730242#0 116730242#1 116730242#3" >
        <stop busStop="BV10129988_526710359#1" duration="30.00" until="115.0"/> <!-- 学士街 -->
        <stop busStop="BV10129989_526710359#3" duration="30.00" until="295.0"/> <!-- 养育巷 -->
        <stop busStop="BV10129991_793885077#0" duration="30.00" until="428.0"/> <!-- 乐桥 -->
        <stop busStop="BV10131202_621156411#0" duration="30.00" until="548.0"/> <!-- 双塔 -->
        <stop busStop="BV10129997_116730242#3" duration="30.00" until="661.0"/> <!-- 相门 -->
    </route>
    <route id="bus_320500010096:0" edges="69707953 801546995 801546994 792592958#0 792592958#1 792592958#2 792592958#2.48 792592958#3 792592958#4 792592958#5 792592958#6 834200993#1 834200992 621156401#1.258 620937806#0 620937806#0.31 620937806#1 620937806#1.48 620937806#1.48.118 620937806#1.48.173 620937806#2 620937806#2.82 -gneE10" >
        <stop busStop="BV10129906_69707953" duration="30.00" until="122.0"/> <!-- 姑胥桥 -->
        <stop busStop="BV10130301_792592958#2" duration="30.00" until="241.0"/> <!-- 吉利桥 -->
        <stop busStop="BV10129882_792592958#6" duration="30.00" until="334.0"/> <!-- 市立医院本部 -->
        <stop busStop="BV10849375_834200992" duration="30.00" until="441.0"/> <!-- 苏州图书馆 -->
        <stop busStop="BV10130460_620937806#2" duration="30.00" until="543.0"/> <!-- 工人文化宫 -->
        <stop busStop="BV10130305_-gneE10" duration="30.00" until="680.0"/> <!-- 南门 -->
    </route>
    <route id="bus_320500010698:0" edges="526710359#1 526710359#2 526710359#3 526710359#4 526710359#4.155 526710359#6 485337612 793885077#0 793885077#1 621156408 793885079 621156411#0 621156411#1 621156410 801547007#0 801547007#1 801546987 116730242#0 116730242#1 116730242#3" >
        <stop busStop="BV10129988_526710359#1" duration="30.00" until="146.0"/> <!-- 学士街 -->
        <stop busStop="BV10129989_526710359#3" duration="30.00" until="327.0"/> <!-- 养育巷 -->
        <stop busStop="BV10129991_793885077#0" duration="30.00" until="460.0"/> <!-- 乐桥 -->
        <stop busStop="BV10131202_621156411#0" duration="30.00" until="590.0"/> <!-- 双塔 -->
        <stop busStop="BV10129997_116730242#3" duration="30.00" until="702.0"/> <!-- 相门 -->
    </route>
    <route id="bus_900000085131:0" edges="-525823901#1 790946261 454323076 621156389#0 gneE10 gneE10.173 gneE10.199.4 621156398#0 559744149 559744149.148 -620937814#0 620937798 454323077 525823902 525823901#1" >
        <stop busStop="BV11319205_-525823901#1" duration="30.00" until="74.0"/> <!-- 轮船码头首末站 -->
        <stop busStop="BV10130305_gneE10" duration="30.00" until="537.0"/> <!-- 南门 -->
        <stop busStop="BV11319205_525823901#1" duration="30.00" until="714.0"/> <!-- 轮船码头首末站 -->
    </route>
    <route id="bus_320500010287:0" edges="gneE10 gneE10.173 gneE10.199.4 419909909#0 419909909#1 620939909#0 620939909#1 620937801#0 620937801#0.87" >
        <stop busStop="BV10130305_gneE10" duration="30.00" until="328.0"/> <!-- 南门 -->
        <stop busStop="BV10130639_620937801#0.87" duration="30.00" until="534.0"/> <!-- 盘门景区北 -->
    </route>
    <route id="bus_900000045140:0" edges="66254174#2 66254174#3 66254174#3.137 834863339 442386648#0 442386648#1 442386648#2 442386648#3 442386648#3.75 44669552#0 44669552#1 44669552#2 44669552#3 44669552#4 44669552#4.60 526710359#3 526710359#4 526710359#4.155 526710359#6 485337612 793885077#0 793885077#1 621156408 793885079 621156411#0 621156411#1 621156410 801547007#0 801547007#1 801546987 116730242#0 116730242#1 116730242#3" >
        <stop busStop="BV11067361_66254174#2" duration="30.00" until="40.0"/> <!-- 慈济 -->
        <stop busStop="BV10502792_442386648#0" duration="30.00" until="106.0"/> <!-- 儿童医院景德路院区 -->
        <stop busStop="BV11067675_44669552#1" duration="30.00" until="234.0"/> <!-- 景德路 -->
        <stop busStop="BV10129989_526710359#3" duration="30.00" until="381.0"/> <!-- 养育巷 -->
        <stop busStop="BV10129991_793885077#0" duration="30.00" until="529.0"/> <!-- 乐桥 -->
        <stop busStop="BV10131202_621156411#0" duration="30.00" until="646.0"/> <!-- 双塔 -->
        <stop busStop="BV10129997_116730242#3" duration="30.00" until="759.0"/> <!-- 相门 -->
    </route>
    <route id="bus_320500010131:0" edges="69707953 801546995 801546994 792592958#0 792592958#1 792592958#2 792592958#2.48 792592958#3 792592958#4 792592958#5 792592958#6 834200993#1 834200992 621156401#1.258 620937806#0 620937806#0.31 620937806#1 620937806#1.48 620937806#1.48.118 620937806#1.48.173 620937806#2 620937806#2.82 -gneE10" >
        <stop busStop="BV10129906_69707953" duration="30.00" until="207.0"/> <!-- 姑胥桥 -->
        <stop busStop="BV10130301_792592958#2" duration="30.00" until="326.0"/> <!-- 吉利桥 -->
        <stop busStop="BV10129882_792592958#6" duration="30.00" until="418.0"/> <!-- 市立医院本部 -->
        <stop busStop="BV10849375_834200992" duration="30.00" until="528.0"/> <!-- 苏州图书馆 -->
        <stop busStop="BV10130460_620937806#2" duration="30.00" until="656.0"/> <!-- 工人文化宫 -->
        <stop busStop="BV10130305_-gneE10" duration="30.00" until="771.0"/> <!-- 南门 -->
    </route>
    <route id="bus_320500010135:0" edges="51229439#2 51229439#4 685088112#0 685088112#1 621156409 832153225 801547008#0 801547008#1 801547008#2 801547008#3 801547008#4 621156407#0 621156407#1 621156407#2 621156407#3 526710358#0 792592967#0 792592967#0.31 792592967#0.43 792592967#0.43.89 792592967#1 792592967#1.143 834876447#0 834876447#1 834876447#2 834876447#3" >
        <stop busStop="BV10129997_51229439#2" duration="30.00" until="107.0"/> <!-- 相门 -->
        <stop busStop="BV10129993_801547008#3" duration="30.00" until="335.0"/> <!-- 市一中 -->
        <stop busStop="BV10129991_621156407#0" duration="30.00" until="411.0"/> <!-- 乐桥 -->
        <stop busStop="BV10129989_792592967#1" duration="30.00" until="570.0"/> <!-- 养育巷 -->
        <stop busStop="BV10129988_834876447#3" duration="30.00" until="701.0"/> <!-- 学士街 -->
    </route>
    <route id="bus_320500010168:0" edges="-44678824#0 -44678824#0.263 44669544#7 621671426 796217838 449258902#1 112973829#0 112973829#2 112973829#4 112973829#6 112973829#7 112973829#8 -442386648#3 -442386648#2 -442386648#1 -442386648#0 -834863339 -66254174#3 -66254174#2" >
        <stop busStop="BV11331387_-44678824#0" duration="30.00" until="40.0"/> <!-- 平门西 -->
        <stop busStop="BV10130441_-44678824#0.263" duration="30.00" until="149.0"/> <!-- 平四路 -->
        <stop busStop="BV10130175_44669544#7" duration="30.00" until="502.0"/> <!-- 桃花坞 -->
        <stop busStop="BV10130174_449258902#1" duration="30.00" until="592.0"/> <!-- 中市桥 -->
        <stop busStop="BV10130173_112973829#2" duration="30.00" until="654.0"/> <!-- 宋仙洲巷 -->
        <stop busStop="BV10502792_-442386648#0" duration="30.00" until="761.0"/> <!-- 儿童医院景德路院区 -->
        <stop busStop="BV11067361_-66254174#2" duration="30.00" until="826.0"/> <!-- 慈济 -->
    </route>
    <route id="bus_320500011139:0" edges="gneE27 --gneE14.233 442518549#6 834617775 gneE41 gneE41.86 gneE41.86.189 834617776#2 gneE55 gneE55.142 -442386643#1.13 -442386643#0 44669526#4 44669526#2 44669526#1 44669526#0 795866926#4 795866926#4.16 795866926#5 834617776#2 gneE59 834617776#4 834617776#5 834617776#6 834617776#6.150 -442386648#8 -442386648#7 -442386648#6 -442386648#5 -442386648#4 -442386648#4.181 -442386648#3 -442386648#2 -442386648#1 -442386648#0 -834863339 -66254174#3 -66254174#2" >
        <stop busStop="BV10129588_gneE27" duration="30.00" until="111.0"/> <!-- 平门 -->
        <stop busStop="BV10129589_gneE41" duration="30.00" until="223.0"/> <!-- 北寺塔 -->
        <stop busStop="BV10129596_gneE55" duration="30.00" until="295.0"/> <!-- 接驾桥 -->
        <stop busStop="BV10129910_834617776#6" duration="30.00" until="566.0"/> <!-- 察院场观前街西 -->
        <stop busStop="BV10131194_-442386648#4" duration="30.00" until="649.0"/> <!-- 察院场 -->
        <stop busStop="BV10502792_-442386648#1" duration="30.00" until="768.0"/> <!-- 儿童医院景德路院区 -->
        <stop busStop="BV11067361_-66254174#2" duration="30.00" until="854.0"/> <!-- 慈济 -->
    </route>
    <route id="bus_320500010305:0" edges="526710359#1 526710359#2 526710359#3 526710359#4 526710359#4.155 526710359#6 485337612 793885077#0 793885077#1 621156408 793885079 621156411#0 621156411#1 621156410 801547007#0 801547007#1 801546987 116730242#0 116730242#1 116730242#3" >
        <stop busStop="BV10129988_526710359#1" duration="30.00" until="177.0"/> <!-- 学士街 -->
        <stop busStop="BV10129989_526710359#3" duration="30.00" until="397.0"/> <!-- 养育巷 -->
        <stop busStop="BV10129991_793885077#0" duration="30.00" until="544.0"/> <!-- 乐桥 -->
        <stop busStop="BV10131202_621156411#0" duration="30.00" until="720.0"/> <!-- 双塔 -->
        <stop busStop="BV10129997_116730242#3" duration="30.00" until="850.0"/> <!-- 相门 -->
    </route>
    <route id="bus_320500010067:0" edges="gneE27 --gneE14.233 442518549#6 834617775 gneE41 gneE41.86 gneE41.86.189 834617776#2 gneE55 gneE55.142 -442386643#1.13 -442386643#0 44669526#4 44669526#2 44669526#1 44669526#0 795866926#4 795866926#4.16 795866926#5 834617776#2 gneE59 834617776#4 834617776#5 834617776#6 834617776#6.150 792592964#0 792592964#0.85 792592964#1 793877960#0 793877960#1 793877960#1.81 815152496 815152495 792592966#0 gneE87 gneE87.96 792592966#2.74 gneE90 792592966#4.175 44669535#1 44669535#2 44669535#3 44669535#4 44669535#5 44669535#6 44669535#7 44669535#8 801546992 801546998#0" >
        <stop busStop="BV10129588_gneE27" duration="30.00" until="43.0"/> <!-- 平门 -->
        <stop busStop="BV10129596_gneE55" duration="30.00" until="182.0"/> <!-- 接驾桥 -->
        <stop busStop="BV10129910_834617776#6" duration="30.00" until="452.0"/> <!-- 察院场观前街西 -->
        <stop busStop="BV10129881_793877960#1" duration="30.00" until="534.0"/> <!-- 乐桥北 -->
        <stop busStop="BV10129905_gneE90" duration="30.00" until="683.0"/> <!-- 饮马桥 -->
        <stop busStop="BV10129882_44669535#3" duration="30.00" until="786.0"/> <!-- 市立医院本部 -->
        <stop busStop="BV10129906_801546998#0" duration="30.00" until="890.0"/> <!-- 姑胥桥 -->
    </route>
    <route id="bus_900000088567:0" edges="-372693176#2 -372693176#1 -372693176#0 477237804#0 -372693166#2 -372693166#1 294908211#0 294908211#1 294908211#2 294908214 294908215 186138194 793466805#0 793466805#1 793466805#2 805173893 793466806 805173894" >
        <stop busStop="BV10129954_-372693176#2" duration="30.00" until="55.0"/> <!-- 葑门北 -->
        <stop busStop="BV10129953_-372693176#1" duration="30.00" until="136.0"/> <!-- 相门后庄 -->
        <stop busStop="BV10129952_477237804#0" duration="30.00" until="202.0"/> <!-- 相门桥 -->
        <stop busStop="BV10129951_-372693166#2" duration="30.00" until="562.0"/> <!-- 新湘苑 -->
        <stop busStop="BV10129950_294908211#1" duration="30.00" until="629.0"/> <!-- 永林新村 -->
        <stop busStop="BV10129949_294908211#2" duration="30.00" until="701.0"/> <!-- 日规路 -->
        <stop busStop="BV10876681_793466805#0" duration="30.00" until="783.0"/> <!-- 娄门北 -->
        <stop busStop="900000088567_BV11210772" duration="30.00" until="891.0"/> <!-- 糖坊湾 -->
    </route>
    <route id="bus_320500010048:0" edges="44669553#6 834530220 44678822#0 44678822#1 44678822#2 44678822#2.28 795866926#0 795866926#2 795866926#4 795866926#4.16 795866926#5 834617776#2 gneE59 834617776#4 834617776#5 834617776#6 834617776#6.150 792592964#0 792592964#0.85 792592964#1 815152498#4 815152498#5 815152498#6 815152498#7 834633048#0 gneE65 gneE65.62 gneE57 gneE49 gneE44 gneE44.250 gneE20 795509472#5.140 131443671#0 131443671#1 131443671#2 131443671#3 131443671#4 131443671#5" >
        <stop busStop="BV10129578_44669553#6" duration="30.00" until="52.0"/> <!-- 阊门横街 -->
        <stop busStop="BV10129559_44678822#0" duration="30.00" until="140.0"/> <!-- 皋桥 -->
        <stop busStop="BV10129558_795866926#4.16" duration="30.00" until="248.0"/> <!-- 接驾桥西 -->
        <stop busStop="BV10129589_gneE44.250" duration="30.00" until="637.0"/> <!-- 北寺塔 -->
        <stop busStop="BV10129588_gneE20" duration="30.00" until="732.0"/> <!-- 平门 -->
        <stop busStop="BV10129557_131443671#1" duration="30.00" until="810.0"/> <!-- 平门东 -->
        <stop busStop="BV10129556_131443671#5" duration="30.00" until="893.0"/> <!-- 平齐花苑 -->
    </route>
    <route id="bus_320500010114:0" edges="66254174#2 66254174#3 66254174#3.137 834863339 442386648#0 442386648#1 442386648#2 442386648#3 442386648#3.75 442386648#4 442386648#5 442386648#6 442386648#7 442386648#8 442386648#8.110 834633048#0 834633048#0.83 gneE58 834633048#2 -442386643#1.13 454323080#2 454323080#1 454323080#0 442386648#6 442386648#7 442386648#8 442386648#8.110 834633048#0 gneE65 gneE65.62 gneE57 gneE49 gneE44 gneE44.250 gneE20" >
        <stop busStop="BV11067361_66254174#2" duration="30.00" until="72.0"/> <!-- 慈济 -->
        <stop busStop="BV10502792_442386648#0" duration="30.00" until="138.0"/> <!-- 儿童医院景德路院区 -->
        <stop busStop="BV10131194_442386648#6" duration="30.00" until="238.0"/> <!-- 察院场 -->
        <stop busStop="BV10129910_834633048#0.83" duration="30.00" until="309.0"/> <!-- 察院场观前街西 -->
        <stop busStop="BV10129596_gneE49" duration="30.00" until="616.0"/> <!-- 接驾桥 -->
        <stop busStop="BV10129589_gneE44.250" duration="30.00" until="748.0"/> <!-- 北寺塔 -->
        <stop busStop="BV10129588_gneE20" duration="30.00" until="890.0"/> <!-- 平门 -->
    </route>
    <route id="bus_320500011108:0" edges="51229439#2 51229439#4 685088112#0 685088112#1 621156409 832153225 801547008#0 801547008#1 801547008#2 801547008#3 801547008#4 621156407#0 621156407#1 621156407#2 621156407#3 526710358#0 792592967#0 792592967#0.31 296360709#0 296360709#1 -525823906#0 gneE68 gneE68.78 815152496 815152495 792592966#0 792592966#1 -442518548#1.9 -805819275#2 526710359#6 485337612 793885077#0 793885077#1 621156408 793885079 621156411#0 621156411#1 621156410 801547007#0 801547007#1 801546987 116730242#0 116730242#1 116730242#3" >
        <stop busStop="BV10129997_51229439#2" duration="30.00" until="72.0"/> <!-- 相门 -->
        <stop busStop="BV10129993_801547008#3" duration="30.00" until="259.0"/> <!-- 市一中 -->
        <stop busStop="BV10129991_621156407#0" duration="30.00" until="346.0"/> <!-- 乐桥 -->
        <stop busStop="BV10129991_793885077#0" duration="30.00" until="637.0"/> <!-- 乐桥 -->
        <stop busStop="BV10131202_621156411#0" duration="30.00" until="775.0"/> <!-- 双塔 -->
        <stop busStop="BV10129997_116730242#3" duration="30.00" until="905.0"/> <!-- 相门 -->
    </route>
    <route id="bus_320500010751:0" edges="69707953 801546995 801546994 792592958#0 792592958#1 792592958#2 792592958#2.48 792592958#3 792592958#4 792592958#5 792592958#6 621156404 621156387 69707916#0 69707916#1 69707916#2 69707916#2.85 69707916#2.222 795311121 795311121.64 621655562#0 621655562#1 621655562#2 621156410 801547007#0 801547007#1 801546987 116730242#0 116730242#1 116730242#3" >
        <stop busStop="BV10129906_69707953" duration="30.00" until="289.0"/> <!-- 姑胥桥 -->
        <stop busStop="BV10130301_792592958#2" duration="30.00" until="407.0"/> <!-- 吉利桥 -->
        <stop busStop="BV10129882_792592958#6" duration="30.00" until="502.0"/> <!-- 市立医院本部 -->
        <stop busStop="BV11472097_69707916#0" duration="30.00" until="631.0"/> <!-- 平直实小东 -->
        <stop busStop="BV10964849_795311121.64" duration="30.00" until="723.0"/> <!-- 苏大附一院十梓街院区西 -->
        <stop busStop="BV10131202_621655562#2" duration="30.00" until="786.0"/> <!-- 双塔 -->
        <stop busStop="BV10129997_116730242#3" duration="30.00" until="930.0"/> <!-- 相门 -->
    </route>
    <route id="bus_900000082554:0" edges="44669553#6 834530220 44678822#0 44678822#1 44678822#2 44678822#2.28 795866926#0 795866926#2 795866926#4 795866926#4.16 795866926#5 834617776#2 gneE59 834617776#4 834617776#5 834617776#6 834617776#6.150 792592964#0 792592964#0.85 792592964#1 815152498#4 815152498#5 815152498#6 815152498#7 834633048#0 gneE65 gneE65.62 gneE57 gneE49 gneE44 gneE44.250 gneE20 795509472#5.140 131443671#0 131443671#1 131443671#2 131443671#3 131443671#4 131443671#5" >
        <stop busStop="BV10129578_44669553#6" duration="30.00" until="83.0"/> <!-- 阊门横街 -->
        <stop busStop="BV10129559_44678822#0" duration="30.00" until="174.0"/> <!-- 皋桥 -->
        <stop busStop="BV10129558_795866926#4.16" duration="30.00" until="281.0"/> <!-- 接驾桥西 -->
        <stop busStop="BV10129589_gneE44.250" duration="30.00" until="670.0"/> <!-- 北寺塔 -->
        <stop busStop="BV10129588_gneE20" duration="30.00" until="796.0"/> <!-- 平门 -->
        <stop busStop="BV10129557_131443671#1" duration="30.00" until="873.0"/> <!-- 平门东 -->
        <stop busStop="BV10129556_131443671#5" duration="30.00" until="953.0"/> <!-- 平齐花苑 -->
    </route>
    <route id="bus_320500010004:0" edges="131443671#4 131443671#5 834172519 -44660545 44660545 -834172519 -131443671#5 -131443671#4 -131443671#3 -131443671#2 -131443671#1 -131443671#0 442518549#1 gneE18 gneE18.183 gneE27 --gneE14.233 442518549#6 834617775 gneE41 -44669553#6" >